sim-outorder: SimpleScalar/PISA Tool Set version 3.0 of August, 2003.
Copyright (c) 1994-2003 by Todd M. Austin, Ph.D. and SimpleScalar, LLC.
All Rights Reserved. This version of SimpleScalar is licensed for academic
non-commercial use.  No portion of this work may be used by any commercial
entity, or for any commercial purpose, without the prior written permission
of SimpleScalar, LLC (info@simplescalar.com).

rat power stats
Decoder -- Driving decoders            == 0.0514573
Decoder -- Driving nor w/ nand         == 0.0424356
Decoder -- Driving inverter w/ nor     == 0.000702457
Wordline Driver Sizes -- nsize == 21.875000, psize == 43.750000
Wordline -- Inverter -> Driver         == 0.00531451
Wordline -- Line                       == 0.342601
Wordline -- Line -- access -- gatecap  == 0.013664
Wordline -- Line -- driver -- draincap == 0.0136881
Wordline -- Line -- metal              == 0.333681
Bitline -- Precharge                   == 0.4175
Bitline -- Line                        == 1.19607
Bitline -- Line -- access draincap     == 0.0985088
Bitline -- Line -- precharge draincap  == 0.0595688
Bitline -- Line -- metal               == 0.430805
Bitline -- Colmux                      == 0.183034

Decoder -- Driving decoders            == 0.00163746
Decoder -- Driving nor w/ nand         == 0.00162415
Decoder -- Driving inverter w/ nor     == 6.99643e-05
regfile power stats
Decoder -- Driving decoders            == 0.0514573
Decoder -- Driving nor w/ nand         == 0.0424356
Decoder -- Driving inverter w/ nor     == 0.000702457
Wordline Driver Sizes -- nsize == 21.875000, psize == 43.750000
Wordline -- Inverter -> Driver         == 0.00531451
Wordline -- Line                       == 1.31205
Wordline -- Line -- access -- gatecap  == 0.218624
Wordline -- Line -- driver -- draincap == 0.0136881
Wordline -- Line -- metal              == 1.16933
Bitline -- Precharge                   == 0.35335
Bitline -- Line                        == 0.98407
Bitline -- Line -- access draincap     == 0.0985088
Bitline -- Line -- precharge draincap  == 0.0504438
Bitline -- Line -- metal               == 0.338489
Bitline -- Colmux                      == 0.183034

res station power stats
Decoder -- Driving decoders            == 0.022455
Decoder -- Driving nor w/ nand         == 0.0212178
Decoder -- Driving inverter w/ nor     == 0.000702457
Wordline Driver Sizes -- nsize == 21.875000, psize == 43.750000
Wordline -- Inverter -> Driver         == 0.00531451
Wordline -- Line                       == 1.31205
Wordline -- Line -- access -- gatecap  == 0.218624
Wordline -- Line -- driver -- draincap == 0.0136881
Wordline -- Line -- metal              == 1.16933
Bitline -- Precharge                   == 0.180675
Bitline -- Line                        == 0.502945
Bitline -- Line -- access draincap     == 0.0492544
Bitline -- Line -- precharge draincap  == 0.0258819
Bitline -- Line -- metal               == 0.169245
Bitline -- Colmux                      == 0.183034

lsq station power stats
Decoder -- Driving decoders            == 0.00327491
Decoder -- Driving nor w/ nand         == 0.0032483
Decoder -- Driving inverter w/ nor     == 0.000139929
Wordline Driver Sizes -- nsize == 21.875000, psize == 43.750000
Wordline -- Inverter -> Driver         == 0.0017715
Wordline -- Line                       == 0.573525
Wordline -- Line -- access -- gatecap  == 0.218624
Wordline -- Line -- driver -- draincap == 0.0136881
Wordline -- Line -- metal              == 0.430805
Bitline -- Precharge                   == 0.124735
Bitline -- Line                        == 0.345054
Bitline -- Line -- access draincap     == 0.0246272
Bitline -- Line -- precharge draincap  == 0.0179249
Bitline -- Line -- metal               == 0.123087
Bitline -- Colmux                      == 0.183034

16384 KB 4-way btb (8-byte block size):
ndwl == 8, ndbl == 1, nspd == 1
8 sets of 512 rows x 32 cols
btb power stats
Decoder -- Driving decoders            == 0.225934
Decoder -- Driving nor w/ nand         == 0.122378
Decoder -- Driving inverter w/ nor     == 0.000164188
Wordline Driver Sizes -- nsize == 10.571708, psize == 21.143415
Wordline -- Inverter -> Driver         == 0.000489005
Wordline -- Line                       == 0.125211
Wordline -- Line -- access -- gatecap  == 0.109312
Wordline -- Line -- driver -- draincap == 0.00729724
Wordline -- Line -- metal              == 0.0538506
Bitline -- Precharge                   == 0.4175
Bitline -- Line                        == 5.60552
Bitline -- Line -- access draincap     == 1.57614
Bitline -- Line -- precharge draincap  == 0.0595688
Bitline -- Line -- metal               == 1.35396
Bitline -- Colmux                      == 0.015176

local predict power stats
Decoder -- Driving decoders            == 0
Decoder -- Driving nor w/ nand         == 0.000203019
Decoder -- Driving inverter w/ nor     == 6.99643e-05
Wordline Driver Sizes -- nsize == 2.642927, psize == 5.285854
Wordline -- Inverter -> Driver         == 0.000210705
Wordline -- Line                       == 0.0313026
Wordline -- Line -- access -- gatecap  == 0.027328
Wordline -- Line -- driver -- draincap == 0.00397561
Wordline -- Line -- metal              == 0.0134626
Bitline -- Precharge                   == 0.02438
Bitline -- Line                        == 0.0343268
Bitline -- Line -- access draincap     == 0.0030784
Bitline -- Line -- precharge draincap  == 0.00545228
Bitline -- Line -- metal               == 0.00264445
Bitline -- Colmux                      == 0.015176

local predict power stats
Decoder -- Driving decoders            == 0.0196468
Decoder -- Driving nor w/ nand         == 0.0141452
Decoder -- Driving inverter w/ nor     == 0.000117076
Wordline Driver Sizes -- nsize == 15.857561, psize == 31.715123
Wordline -- Inverter -> Driver         == 0.000674539
Wordline -- Line                       == 0.187816
Wordline -- Line -- access -- gatecap  == 0.163968
Wordline -- Line -- driver -- draincap == 0.0102859
Wordline -- Line -- metal              == 0.0807759
Bitline -- Precharge                   == 0.297449
Bitline -- Line                        == 0.794374
Bitline -- Line -- access draincap     == 0.197018
Bitline -- Line -- precharge draincap  == 0.0424923
Bitline -- Line -- metal               == 0.169245
Bitline -- Colmux                      == 0.015176

bimod_config[0] == 2048
global predict power stats
Decoder -- Driving decoders            == 0.0196468
Decoder -- Driving nor w/ nand         == 0.0141452
Decoder -- Driving inverter w/ nor     == 0.000117076
Wordline Driver Sizes -- nsize == 21.143415, psize == 42.286830
Wordline -- Inverter -> Driver         == 0.000860072
Wordline -- Line                       == 0.250421
Wordline -- Line -- access -- gatecap  == 0.218624
Wordline -- Line -- driver -- draincap == 0.0132745
Wordline -- Line -- metal              == 0.107701
Bitline -- Precharge                   == 0.297449
Bitline -- Line                        == 0.794374
Bitline -- Line -- access draincap     == 0.197018
Bitline -- Line -- precharge draincap  == 0.0424923
Bitline -- Line -- metal               == 0.169245
Bitline -- Colmux                      == 0.015176

chooser predict power stats
Decoder -- Driving decoders            == 0.0196468
Decoder -- Driving nor w/ nand         == 0.0141452
Decoder -- Driving inverter w/ nor     == 0.000117076
Wordline Driver Sizes -- nsize == 10.571708, psize == 21.143415
Wordline -- Inverter -> Driver         == 0.000489005
Wordline -- Line                       == 0.125211
Wordline -- Line -- access -- gatecap  == 0.109312
Wordline -- Line -- driver -- draincap == 0.00729724
Wordline -- Line -- metal              == 0.0538506
Bitline -- Precharge                   == 0.297449
Bitline -- Line                        == 0.794374
Bitline -- Line -- access draincap     == 0.197018
Bitline -- Line -- precharge draincap  == 0.0424923
Bitline -- Line -- metal               == 0.169245
Bitline -- Colmux                      == 0.015176

RAS predict power stats
Decoder -- Driving decoders            == 0.00163746
Decoder -- Driving nor w/ nand         == 0.00162415
Decoder -- Driving inverter w/ nor     == 6.99643e-05
Wordline Driver Sizes -- nsize == 21.875000, psize == 43.750000
Wordline -- Inverter -> Driver         == 0.000885751
Wordline -- Line                       == 0.388894
Wordline -- Line -- access -- gatecap  == 0.218624
Wordline -- Line -- driver -- draincap == 0.0136881
Wordline -- Line -- metal              == 0.246174
Bitline -- Precharge                   == 0.0487408
Bitline -- Line                        == 0.129035
Bitline -- Line -- access draincap     == 0.0246272
Bitline -- Line -- precharge draincap  == 0.0115979
Bitline -- Line -- metal               == 0.0269253
Bitline -- Colmux                      == 0.183034

dtlb predict power stats
Decoder -- Driving decoders            == 0.00857621
Decoder -- Driving nor w/ nand         == 0.0070726
Decoder -- Driving inverter w/ nor     == 0.000117076
Wordline Driver Sizes -- nsize == 18.469621, psize == 36.939242
Wordline -- Inverter -> Driver         == 0.000766222
Wordline -- Line                       == 0.218753
Wordline -- Line -- access -- gatecap  == 0.122976
Wordline -- Line -- driver -- draincap == 0.0117627
Wordline -- Line -- metal              == 0.138473
Bitline -- Precharge                   == 0.170963
Bitline -- Line                        == 0.463317
Bitline -- Line -- access draincap     == 0.0985088
Bitline -- Line -- precharge draincap  == 0.0245005
Bitline -- Line -- metal               == 0.107701
Bitline -- Colmux                      == 0.015176

itlb predict power stats
Decoder -- Driving decoders            == 0.00374251
Decoder -- Driving nor w/ nand         == 0.0035363
Decoder -- Driving inverter w/ nor     == 0.000117076
Wordline Driver Sizes -- nsize == 17.443531, psize == 34.887062
Wordline -- Inverter -> Driver         == 0.000730206
Wordline -- Line                       == 0.2066
Wordline -- Line -- access -- gatecap  == 0.116144
Wordline -- Line -- driver -- draincap == 0.0111826
Wordline -- Line -- metal              == 0.13078
Bitline -- Precharge                   == 0.0894816
Bitline -- Line                        == 0.248221
Bitline -- Line -- access draincap     == 0.0492544
Bitline -- Line -- precharge draincap  == 0.0129102
Bitline -- Line -- metal               == 0.0538506
Bitline -- Colmux                      == 0.015176

16384 KB 1-way cache (32-byte block size):
ndwl == 2, ndbl == 2, nspd == 1
4 sets of 256 rows x 128 cols
tagsize == 34
icache power stats
Decoder -- Driving decoders            == 0.101039
Decoder -- Driving nor w/ nand         == 0.0611888
Decoder -- Driving inverter w/ nor     == 0.000164188
Wordline Driver Sizes -- nsize == 21.875000, psize == 43.750000
Wordline -- Inverter -> Driver         == 0.000885751
Wordline -- Line                       == 0.500842
Wordline -- Line -- access -- gatecap  == 0.437248
Wordline -- Line -- driver -- draincap == 0.0136881
Wordline -- Line -- metal              == 0.215402
Bitline -- Precharge                   == 0.4175
Bitline -- Line                        == 2.88924
Bitline -- Line -- access draincap     == 0.78807
Bitline -- Line -- precharge draincap  == 0.0595688
Bitline -- Line -- metal               == 0.676979
Bitline -- Colmux                      == 0.015176

Decoder -- Driving decoders            == 0.0447506
Decoder -- Driving nor w/ nand         == 0.0305944
Decoder -- Driving inverter w/ nor     == 0.000164188
Wordline Driver Sizes -- nsize == 21.875000, psize == 43.750000
Wordline -- Inverter -> Driver         == 0.000885751
Wordline -- Line                       == 0.498271
Wordline -- Line -- access -- gatecap  == 0.280112
Wordline -- Line -- driver -- draincap == 0.0136881
Wordline -- Line -- metal              == 0.315411
Bitline -- Precharge                   == 0.4175
Bitline -- Line                        == 1.71574
Bitline -- Line -- access draincap     == 0.394035
Bitline -- Line -- precharge draincap  == 0.0595688
Bitline -- Line -- metal               == 0.430805
Bitline -- Colmux                      == 0.015176

16384 KB 4-way cache (32-byte block size):
ndwl == 4, ndbl == 2, nspd == 1
8 sets of 64 rows x 256 cols
tagsize == 36

ntwl == 1, ntbl == 2, ntspd == 1
2 sets of 64 rows x 172 cols
dcache power stats
Decoder -- Driving decoders            == 0.0196468
Decoder -- Driving nor w/ nand         == 0.0141452
Decoder -- Driving inverter w/ nor     == 0.000117076
Wordline Driver Sizes -- nsize == 21.875000, psize == 43.750000
Wordline -- Inverter -> Driver         == 0.000885751
Wordline -- Line                       == 1.00168
Wordline -- Line -- access -- gatecap  == 0.874496
Wordline -- Line -- driver -- draincap == 0.0136881
Wordline -- Line -- metal              == 0.430805
Bitline -- Precharge                   == 0.297449
Bitline -- Line                        == 0.794374
Bitline -- Line -- access draincap     == 0.197018
Bitline -- Line -- precharge draincap  == 0.0424923
Bitline -- Line -- metal               == 0.169245
Bitline -- Colmux                      == 0.015176

Decoder -- Driving decoders            == 0.0196468
Decoder -- Driving nor w/ nand         == 0.0141452
Decoder -- Driving inverter w/ nor     == 0.000117076
Wordline Driver Sizes -- nsize == 21.875000, psize == 43.750000
Wordline -- Inverter -> Driver         == 0.000885751
Wordline -- Line                       == 1.04515
Wordline -- Line -- access -- gatecap  == 0.587552
Wordline -- Line -- driver -- draincap == 0.0136881
Wordline -- Line -- metal              == 0.661593
Bitline -- Precharge                   == 0.333926
Bitline -- Line                        == 0.901
Bitline -- Line -- access draincap     == 0.197018
Bitline -- Line -- precharge draincap  == 0.0476809
Bitline -- Line -- metal               == 0.215402
Bitline -- Colmux                      == 0.015176

num_piperegs == 10920.000000
Global Clock Power: 21.7479
 Global Metal Lines   (W): 2.04
 Global Metal Lines (3%) (W): 3.81507
 Global Clock Buffers (W): 3.63383
 Global Clock Cap (Explicit) (W): 6.7165
 Global Clock Cap (Implicit) (W): 2.55528
result bus power == 1.914619
global clock power == 21.747894
262144 KB 4-way cache (64-byte block size):
ndwl == 2, ndbl == 2, nspd == 1
4 sets of 512 rows x 1024 cols
tagsize == 32
dcache2 power stats
Decoder -- Driving decoders            == 0.225934
Decoder -- Driving nor w/ nand         == 0.122378
Decoder -- Driving inverter w/ nor     == 0.000164188
Wordline Driver Sizes -- nsize == 21.875000, psize == 43.750000
Wordline -- Inverter -> Driver         == 0.000885751
Wordline -- Line                       == 4.00674
Wordline -- Line -- access -- gatecap  == 3.49798
Wordline -- Line -- driver -- draincap == 0.0136881
Wordline -- Line -- metal              == 1.72322
Bitline -- Precharge                   == 0.4175
Bitline -- Line                        == 5.60552
Bitline -- Line -- access draincap     == 1.57614
Bitline -- Line -- precharge draincap  == 0.0595688
Bitline -- Line -- metal               == 1.35396
Bitline -- Colmux                      == 0.015176

Decoder -- Driving decoders            == 0.101039
Decoder -- Driving nor w/ nand         == 0.0611888
Decoder -- Driving inverter w/ nor     == 0.000164188
Wordline Driver Sizes -- nsize == 21.875000, psize == 43.750000
Wordline -- Inverter -> Driver         == 0.000885751
Wordline -- Line                       == 0.947929
Wordline -- Line -- access -- gatecap  == 0.532896
Wordline -- Line -- driver -- draincap == 0.0136881
Wordline -- Line -- metal              == 0.600049
Bitline -- Precharge                   == 0.4175
Bitline -- Line                        == 3.2585
Bitline -- Line -- access draincap     == 0.78807
Bitline -- Line -- precharge draincap  == 0.0595688
Bitline -- Line -- metal               == 0.861609
Bitline -- Colmux                      == 0.015176


Processor Parameters:
Issue Width: 4
Window Size: 16
Number of Virtual Registers: 32
Number of Physical Registers: 16
Datapath Width: 64
Total Power Consumption: 73.7882
Branch Predictor Power Consumption: 4.52313  (6.3%)
 branch target buffer power (W): 4.16837
 local predict power (W): 0.0879711
 global predict power (W): 0.0996078
 chooser power (W): 0.0702439
 RAS power (W): 0.0969383
Rename Logic Power Consumption: 0.417965  (0.582%)
 Instruction Decode Power (W): 0.0159915
 RAT decode_power (W): 0.113514
 RAT wordline_power (W): 0.0307815
 RAT bitline_power (W): 0.246771
 DCL Comparators (W): 0.0109075
Instruction Window Power Consumption: 2.20432  (3.07%)
 tagdrive (W): 0.0943488
 tagmatch (W): 0.033695
 Selection Logic (W): 0.0134217
 decode_power (W): 0.0532503
 wordline_power (W): 0.0844643
 bitline_power (W): 1.92514
Load/Store Queue Power Consumption: 0.96318  (1.34%)
 tagdrive (W): 0.457232
 tagmatch (W): 0.100774
 decode_power (W): 0.00799577
 wordline_power (W): 0.0150119
 bitline_power (W): 0.382166
Arch. Register File Power Consumption: 3.57247  (4.98%)
 decode_power (W): 0.113514
 wordline_power (W): 0.0844643
 bitline_power (W): 3.37449
Result Bus Power Consumption: 2.29754  (3.2%)
Total Clock Power: 26.0975  (36.4%)
Int ALU Power: 4.66013  (6.49%)
FP ALU Power: 14.281  (19.9%)
Instruction Cache Power Consumption: 2.21363  (3.08%)
 decode_power (W): 0.779481
 wordline_power (W): 0.028656
 bitline_power (W): 0.886372
 senseamp_power (W): 0.096
 tagarray_power (W): 0.423116
Itlb_power (W): 0.263317 (0.367%)
Data Cache Power Consumption: 5.18303  (7.22%)
 decode_power (W): 0.651055
 wordline_power (W): 0.196735
 bitline_power (W): 2.71235
 senseamp_power (W): 0.768
 tagarray_power (W): 0.854886
Dtlb_power (W): 0.901877 (1.26%)
Level 2 Cache Power Consumption: 4.2091 (5.86%)
 decode_power (W): 0.41817
 wordline_power (W): 0.0430878
 bitline_power (W): 3.0244
 senseamp_power (W): 0.192
 tagarray_power (W): 0.531433
sim: command line: sim-outorder -v -redir:sim outsim.txt tests/bin.little/test-llong 

sim: simulation started @ Sun Nov 20 16:28:06 2011, options follow:

sim-outorder: This simulator implements a very detailed out-of-order issue
superscalar processor with a two-level memory system and speculative
execution support.  This simulator is a performance simulator, tracking the
latency of all pipeline operations.

# -config                     # load configuration from a file
# -dumpconfig                 # dump configuration to a file
# -h                    false # print help message    
# -v                     true # verbose operation     
# -d                    false # enable debug message  
# -i                    false # start in Dlite debugger
-seed                       1 # random number generator seed (0 for timer seed)
# -q                    false # initialize and terminate immediately
# -chkpt               <null> # restore EIO trace execution from <fname>
# -redir:sim       outsim.txt # redirect simulator output to file (non-interactive only)
# -redir:prog          <null> # redirect simulated program output to file
-nice                       0 # simulator scheduling priority
-max:inst                   0 # maximum number of inst's to execute
-fastfwd                    0 # number of insts skipped before timing starts
# -ptrace              <null> # generate pipetrace, i.e., <fname|stdout|stderr> <range>
-fetch:ifqsize              4 # instruction fetch queue size (in insts)
-fetch:mplat                3 # extra branch mis-prediction latency
-fetch:speed                1 # speed of front-end of machine relative to execution core
-bpred                  bimod # branch predictor type {nottaken|taken|perfect|bimod|2lev|comb}
-bpred:bimod     2048 # bimodal predictor config (<table size>)
-bpred:2lev      1 1024 8 0 # 2-level predictor config (<l1size> <l2size> <hist_size> <xor>)
-bpred:comb      1024 # combining predictor config (<meta_table_size>)
-bpred:ras                  8 # return address stack size (0 for no return stack)
-bpred:btb       512 4 # BTB config (<num_sets> <associativity>)
# -bpred:spec_update       <null> # speculative predictors update in {ID|WB} (default non-spec)
-decode:width               4 # instruction decode B/W (insts/cycle)
-issue:width                4 # instruction issue B/W (insts/cycle)
-issue:inorder          false # run pipeline with in-order issue
-issue:wrongpath         true # issue instructions down wrong execution paths
-commit:width               4 # instruction commit B/W (insts/cycle)
-ruu:size                  16 # register update unit (RUU) size
-lsq:size                   8 # load/store queue (LSQ) size
-cache:dl1       dl1:128:32:4:l # l1 data cache config, i.e., {<config>|none}
-cache:dl1lat               1 # l1 data cache hit latency (in cycles)
-cache:dl2       ul2:1024:64:4:l # l2 data cache config, i.e., {<config>|none}
-cache:dl2lat               6 # l2 data cache hit latency (in cycles)
-cache:il1       il1:512:32:1:l # l1 inst cache config, i.e., {<config>|dl1|dl2|none}
-cache:il1lat               1 # l1 instruction cache hit latency (in cycles)
-cache:il2                dl2 # l2 instruction cache config, i.e., {<config>|dl2|none}
-cache:il2lat               6 # l2 instruction cache hit latency (in cycles)
-cache:flush            false # flush caches on system calls
-cache:icompress        false # convert 64-bit inst addresses to 32-bit inst equivalents
-mem:lat         18 2 # memory access latency (<first_chunk> <inter_chunk>)
-mem:width                  8 # memory access bus width (in bytes)
-tlb:itlb        itlb:16:4096:4:l # instruction TLB config, i.e., {<config>|none}
-tlb:dtlb        dtlb:32:4096:4:l # data TLB config, i.e., {<config>|none}
-tlb:lat                   30 # inst/data TLB miss latency (in cycles)
-res:ialu                   4 # total number of integer ALU's available
-res:imult                  1 # total number of integer multiplier/dividers available
-res:memport                2 # total number of memory system ports available (to CPU)
-res:fpalu                  4 # total number of floating point ALU's available
-res:fpmult                 1 # total number of floating point multiplier/dividers available
# -pcstat              <null> # profile stat(s) against text addr's (mult uses ok)
-bugcompat              false # operate in backward-compatible bugs mode (for testing only)

  Pipetrace range arguments are formatted as follows:

    {{@|#}<start>}:{{@|#|+}<end>}

  Both ends of the range are optional, if neither are specified, the entire
  execution is traced.  Ranges that start with a `@' designate an address
  range to be traced, those that start with an `#' designate a cycle count
  range.  All other range values represent an instruction count range.  The
  second argument, if specified with a `+', indicates a value relative
  to the first argument, e.g., 1000:+100 == 1000:1100.  Program symbols may
  be used in all contexts.

    Examples:   -ptrace FOO.trc #0:#1000
                -ptrace BAR.trc @2000:
                -ptrace BLAH.trc :1500
                -ptrace UXXE.trc :
                -ptrace FOOBAR.trc @main:+278

  Branch predictor configuration examples for 2-level predictor:
    Configurations:   N, M, W, X
      N   # entries in first level (# of shift register(s))
      W   width of shift register(s)
      M   # entries in 2nd level (# of counters, or other FSM)
      X   (yes-1/no-0) xor history and address for 2nd level index
    Sample predictors:
      GAg     : 1, W, 2^W, 0
      GAp     : 1, W, M (M > 2^W), 0
      PAg     : N, W, 2^W, 0
      PAp     : N, W, M (M == 2^(N+W)), 0
      gshare  : 1, W, 2^W, 1
  Predictor `comb' combines a bimodal and a 2-level predictor.

  The cache config parameter <config> has the following format:

    <name>:<nsets>:<bsize>:<assoc>:<repl>

    <name>   - name of the cache being defined
    <nsets>  - number of sets in the cache
    <bsize>  - block size of the cache
    <assoc>  - associativity of the cache
    <repl>   - block replacement strategy, 'l'-LRU, 'f'-FIFO, 'r'-random

    Examples:   -cache:dl1 dl1:4096:32:1:l
                -dtlb dtlb:128:4096:32:r

  Cache levels can be unified by pointing a level of the instruction cache
  hierarchy at the data cache hiearchy using the "dl1" and "dl2" cache
  configuration arguments.  Most sensible combinations are supported, e.g.,

    A unified l2 cache (il2 is pointed at dl2):
      -cache:il1 il1:128:64:1:l -cache:il2 dl2
      -cache:dl1 dl1:256:32:1:l -cache:dl2 ul2:1024:64:2:l

    Or, a fully unified cache hierarchy (il1 pointed at dl1):
      -cache:il1 dl1
      -cache:dl1 ul1:256:32:1:l -cache:dl2 ul2:1024:64:2:l



sim: ** starting performance simulation **
++          1 [xor: 0x7fff8009] {1} @ 0x00400140: lw        r16,0(r29)
++          2 [xor: 0x6ffe8019] {3} @ 0x00400148: lui       r28,0x1001
++          3 [xor: 0x6fff1599] {4} @ 0x00400150: addiu     r28,r28,-27248
++          4 [xor: 0x100095ad] {5} @ 0x00400158: addiu     r17,r29,4
++          5 [xor: 0x6fff1595] {6} @ 0x00400160: addiu     r3,r17,4
++          6 [xor: 0x6fff1581] {7} @ 0x00400168: sll       r2,r16,2
++          7 [xor: 0x6fff1595] {8} @ 0x00400170: addu      r3,r3,r2
++          8 [xor: 0x10009569] {9} @ 0x00400178: addu      r18,r0,r3
         1 @ 0x00400140: lw        r16,0(r29)
         2 @ 0x00400148: lui       r28,0x1001
         3 @ 0x00400150: addiu     r28,r28,-27248
         4 @ 0x00400158: addiu     r17,r29,4
         5 @ 0x00400160: addiu     r3,r17,4
         6 @ 0x00400168: sll       r2,r16,2
         7 @ 0x00400170: addu      r3,r3,r2
         8 @ 0x00400178: addu      r18,r0,r3
++          9 [xor: 0x10009599] {10} @ 0x00400180: sw        r18,-32412(r28)
++         10 [xor: 0x10006a61] {12} @ 0x00400188: addiu     r29,r29,-24
++         11 [xor: 0x10006a70] {13} @ 0x00400190: addu      r4,r0,r16
++         12 [xor: 0x6fffea44] {14} @ 0x00400198: addu      r5,r0,r17
         9 @ 0x00400180: sw        r18,-32412(r28)
        10 @ 0x00400188: addiu     r29,r29,-24
        11 @ 0x00400190: addu      r4,r0,r16
        12 @ 0x00400198: addu      r5,r0,r17
++         13 [xor: 0x10006a78] {15} @ 0x004001a0: addu      r6,r0,r18
++         14 [xor: 0x10406f88] {16} @ 0x004001a8: jal       0x4005e0
        13 @ 0x004001a0: addu      r6,r0,r18
        14 @ 0x004001a8: jal       0x4005e0
++         15 [xor: 0x10406bf0] {17} @ 0x004005e0: addiu     r29,r29,-24
++         16 [xor: 0x10406be0] {18} @ 0x004005e8: sw        r31,16(r29)
++         17 [xor: 0x10406010] {20} @ 0x004005f0: jal       0x400a50
        15 @ 0x004005e0: addiu     r29,r29,-24
        16 @ 0x004005e8: sw        r31,16(r29)
        17 @ 0x004005f0: jal       0x400a50
++         18 [xor: 0x10406fd0] {21} @ 0x00400a50: addiu     r29,r29,-24
++         19 [xor: 0x10406fe0] {22} @ 0x00400a58: sw        r16,16(r29)
        18 @ 0x00400a50: addiu     r29,r29,-24
        19 @ 0x00400a58: sw        r16,16(r29)
++         20 [xor: 0x6fbfefd5] {24} @ 0x00400a60: addu      r16,r0,r5
++         21 [xor: 0x6fbfefc5] {25} @ 0x00400a68: sw        r31,20(r29)
++         22 [xor: 0x6fbfefd5] {27} @ 0x00400a70: beq       r16,r0,0x400ac0
++         23 [xor: 0x10406f98] {28} @ 0x00400a78: lw        r4,0(r16)
        20 @ 0x00400a60: addu      r16,r0,r5
        21 @ 0x00400a68: sw        r31,20(r29)
        22 @ 0x00400a70: beq       r16,r0,0x400ac0
        23 @ 0x00400a78: lw        r4,0(r16)
++         24 [xor: 0x10406f68] {30} @ 0x00400a80: beq       r4,r0,0x400ac0
++         25 [xor: 0x6fbfef53] {31} @ 0x00400a88: addiu     r5,r0,47
++         26 [xor: 0x6fbfa08b] {32} @ 0x00400a90: jal       0x404a30
        24 @ 0x00400a80: beq       r4,r0,0x400ac0
        25 @ 0x00400a88: addiu     r5,r0,47
        26 @ 0x00400a90: jal       0x404a30
++         27 [xor: 0x6fbfe003] {33} @ 0x00404a30: addiu     r29,r29,-32
++         28 [xor: 0x6fbfe073] {34} @ 0x00404a38: sw        r17,20(r29)
        27 @ 0x00404a30: addiu     r29,r29,-32
        28 @ 0x00404a38: sw        r17,20(r29)
++         29 [xor: 0x10406028] {36} @ 0x00404a40: andi      r17,r5,255
++         30 [xor: 0x10406038] {37} @ 0x00404a48: sw        r31,24(r29)
++         31 [xor: 0x10406028] {39} @ 0x00404a50: sw        r16,16(r29)
++         32 [xor: 0x10406000] {41} @ 0x00404a58: bne       r17,r0,0x404a78
        29 @ 0x00404a40: andi      r17,r5,255
        30 @ 0x00404a48: sw        r31,24(r29)
        31 @ 0x00404a50: sw        r16,16(r29)
        32 @ 0x00404a58: bne       r17,r0,0x404a78
++         33 [xor: 0x6fbfe0dc] {42} @ 0x00404a78: addu      r16,r0,r0
        33 @ 0x00404a78: addu      r16,r0,r0
++         34 [xor: 0x6fbfe02c] {43} @ 0x00404a80: addu      r5,r0,r17
++         35 [xor: 0x6fbf9084] {44} @ 0x00404a88: jal       0x407a20
        34 @ 0x00404a80: addu      r5,r0,r17
        35 @ 0x00404a88: jal       0x407a20
++         36 [xor: 0x6fbfa034] {45} @ 0x00407a20: addiu     r29,r29,-16
++         37 [xor: 0x6fbfa024] {46} @ 0x00407a28: andi      r5,r5,255
++         38 [xor: 0x6fbfa030] {47} @ 0x00407a30: andi      r2,r4,3
++         39 [xor: 0x6fbfa070] {48} @ 0x00407a38: beq       r2,r0,0x407a70
        36 @ 0x00407a20: addiu     r29,r29,-16
        37 @ 0x00407a28: andi      r5,r5,255
        38 @ 0x00407a30: andi      r2,r4,3
        39 @ 0x00407a38: beq       r2,r0,0x407a70
++         40 [xor: 0x1141a030] {49} @ 0x00407a70: lui       r8,0x7efe
++         41 [xor: 0x11415e3f] {50} @ 0x00407a78: ori       r8,r8,65279
        40 @ 0x00407a70: lui       r8,0x7efe
        41 @ 0x00407a78: ori       r8,r8,65279
++         42 [xor: 0x114171cf] {51} @ 0x00407a80: sll       r2,r5,8
++         43 [xor: 0x11415ef0] {52} @ 0x00407a88: or        r9,r5,r2
++         44 [xor: 0x3e6e71e0] {53} @ 0x00407a90: sll       r2,r9,16
++         45 [xor: 0x114171d0] {54} @ 0x00407a98: or        r9,r9,r2
        42 @ 0x00407a80: sll       r2,r5,8
        43 @ 0x00407a88: or        r9,r5,r2
        44 @ 0x00407a90: sll       r2,r9,16
        45 @ 0x00407a98: or        r9,r9,r2
++         46 [xor: 0x1acd9498] {55} @ 0x00407aa0: lw        r6,0(r4)
++         47 [xor: 0x9bcc9588] {57} @ 0x00407aa8: nor       r7,r0,r8
++         48 [xor: 0x9bcc95e4] {58} @ 0x00407ab0: addiu     r4,r4,4
++         49 [xor: 0x174171eb] {59} @ 0x00407ab8: addu      r3,r6,r8
++         50 [xor: 0xb3e2eb10] {60} @ 0x00407ac0: nor       r2,r0,r6
++         51 [xor: 0x386e718b] {61} @ 0x00407ac8: xor       r3,r3,r2
++         52 [xor: 0x40908f63] {62} @ 0x00407ad0: and       r3,r3,r7
++         53 [xor: 0x40908f53] {63} @ 0x00407ad8: bne       r3,r0,0x407b10
        46 @ 0x00407aa0: lw        r6,0(r4)
        47 @ 0x00407aa8: nor       r7,r0,r8
        48 @ 0x00407ab0: addiu     r4,r4,4
        49 @ 0x00407ab8: addu      r3,r6,r8
        50 @ 0x00407ac0: nor       r2,r0,r6
        51 @ 0x00407ac8: xor       r3,r3,r2
        52 @ 0x00407ad0: and       r3,r3,r7
        53 @ 0x00407ad8: bne       r3,r0,0x407b10
++         54 [xor: 0x90405fb3] {64} @ 0x00407ae0: xor       r2,r6,r9
++         55 [xor: 0x4a1b16f9] {65} @ 0x00407ae8: addu      r3,r2,r8
++         56 [xor: 0xb5e4e916] {66} @ 0x00407af0: nor       r2,r0,r2
++         57 [xor: 0x11475d42] {67} @ 0x00407af8: xor       r3,r3,r2
        54 @ 0x00407ae0: xor       r2,r6,r9
        55 @ 0x00407ae8: addu      r3,r2,r8
        56 @ 0x00407af0: nor       r2,r0,r2
        57 @ 0x00407af8: xor       r3,r3,r2
++         58 [xor: 0x6fbfa04c] {68} @ 0x00407b00: and       r3,r3,r7
++         59 [xor: 0x6fbfa1ec] {69} @ 0x00407b08: beq       r3,r0,0x407aa0
        58 @ 0x00407b00: and       r3,r3,r7
        59 @ 0x00407b08: beq       r3,r0,0x407aa0
++         60 [xor: 0x72aeea4b] {70} @ 0x00407aa0: lw        r6,0(r4)
++         61 [xor: 0x72aeea5b] {72} @ 0x00407aa8: nor       r7,r0,r8
++         62 [xor: 0x72aeea4f] {73} @ 0x00407ab0: addiu     r4,r4,4
++         63 [xor: 0x9acfc44d] {74} @ 0x00407ab8: addu      r3,r6,r8
++         64 [xor: 0xa8f1a115] {75} @ 0x00407ac0: nor       r2,r0,r6
++         65 [xor: 0x3e6c7189] {76} @ 0x00407ac8: xor       r3,r3,r2
++         66 [xor: 0x40908f67] {77} @ 0x00407ad0: and       r3,r3,r7
++         67 [xor: 0x40908f57] {78} @ 0x00407ad8: bne       r3,r0,0x407b10
++         68 [xor: 0x90405fb7] {79} @ 0x00407ae0: xor       r2,r6,r9
++         69 [xor: 0x550ba0fc] {80} @ 0x00407ae8: addu      r3,r2,r8
++         70 [xor: 0xaaf45f13] {81} @ 0x00407af0: nor       r2,r0,r2
++         71 [xor: 0x1346a140] {82} @ 0x00407af8: xor       r3,r3,r2
++         72 [xor: 0x6fbea048] {83} @ 0x00407b00: and       r3,r3,r7
++         73 [xor: 0x6fbea058] {84} @ 0x00407b08: beq       r3,r0,0x407aa0
        60 @ 0x00407aa0: lw        r6,0(r4)
        61 @ 0x00407aa8: nor       r7,r0,r8
        62 @ 0x00407ab0: addiu     r4,r4,4
        63 @ 0x00407ab8: addu      r3,r6,r8
        64 @ 0x00407ac0: nor       r2,r0,r6
        65 @ 0x00407ac8: xor       r3,r3,r2
        66 @ 0x00407ad0: and       r3,r3,r7
        67 @ 0x00407ad8: bne       r3,r0,0x407b10
        68 @ 0x00407ae0: xor       r2,r6,r9
        69 @ 0x00407ae8: addu      r3,r2,r8
        70 @ 0x00407af0: nor       r2,r0,r2
        71 @ 0x00407af8: xor       r3,r3,r2
        72 @ 0x00407b00: and       r3,r3,r7
        73 @ 0x00407b08: beq       r3,r0,0x407aa0
++         74 [xor: 0x6fbfa03b] {95} @ 0x00407b10: lbu       r3,-4(r4)
++         75 [xor: 0xa9f2df68] {97} @ 0x00407b18: addiu     r2,r4,-4
        74 @ 0x00407b10: lbu       r3,-4(r4)
        75 @ 0x00407b18: addiu     r2,r4,-4
++         76 [xor: 0xa9f2df58] {98} @ 0x00407b20: beq       r3,r5,0x407bb0
++         77 [xor: 0xa9f2df48] {99} @ 0x00407b28: beq       r3,r0,0x407ba8
        76 @ 0x00407b20: beq       r3,r5,0x407bb0
        77 @ 0x00407b28: beq       r3,r0,0x407ba8
++         78 [xor: 0xa9f2df04] {100} @ 0x00407b30: lbu       r3,-3(r4)
++         79 [xor: 0xa9f2df75] {102} @ 0x00407b38: addiu     r2,r4,-3
        78 @ 0x00407b30: lbu       r3,-3(r4)
        79 @ 0x00407b38: addiu     r2,r4,-3
++         80 [xor: 0xa9f2dffd] {103} @ 0x00407b40: beq       r3,r5,0x407bb0
        80 @ 0x00407b40: beq       r3,r5,0x407bb0
++         81 [xor: 0xa9f2df15] {105} @ 0x00407bb0: addiu     r29,r29,16
++         82 [xor: 0xa9f2ee35] {106} @ 0x00407bb8: jr        r31
++         83 [xor: 0xa9f2df15] {107} @ 0x00404a90: beq       r2,r0,0x404ab0
++         84 [xor: 0xd60d5fe4] {108} @ 0x00404a98: addu      r16,r0,r2
        81 @ 0x00407bb0: addiu     r29,r29,16
        82 @ 0x00407bb8: jr        r31
        83 @ 0x00404a90: beq       r2,r0,0x404ab0
        84 @ 0x00404a98: addu      r16,r0,r2
++         85 [xor: 0xd60d5fd2] {109} @ 0x00404aa0: addiu     r4,r16,1
++         86 [xor: 0xd60d5ff2] {110} @ 0x00404aa8: j         0x404a80
        85 @ 0x00404aa0: addiu     r4,r16,1
        86 @ 0x00404aa8: j         0x404a80
++         87 [xor: 0xd60d5fd2] {111} @ 0x00404a80: addu      r5,r0,r17
++         88 [xor: 0xd60d6f72] {112} @ 0x00404a88: jal       0x407a20
++         89 [xor: 0xd60d5fc2] {113} @ 0x00407a20: addiu     r29,r29,-16
++         90 [xor: 0xd60d5fd2] {114} @ 0x00407a28: andi      r5,r5,255
++         91 [xor: 0xa9f2df01] {115} @ 0x00407a30: andi      r2,r4,3
++         92 [xor: 0xa9f2df71] {116} @ 0x00407a38: beq       r2,r0,0x407a70
        87 @ 0x00404a80: addu      r5,r0,r17
        88 @ 0x00404a88: jal       0x407a20
        89 @ 0x00407a20: addiu     r29,r29,-16
        90 @ 0x00407a28: andi      r5,r5,255
        91 @ 0x00407a30: andi      r2,r4,3
        92 @ 0x00407a38: beq       r2,r0,0x407a70
++         93 [xor: 0xa9f2df61] {126} @ 0x00407a40: lbu       r2,0(r4)
++         94 [xor: 0xa9f2df71] {128} @ 0x00407a48: beq       r2,r5,0x407b98
        93 @ 0x00407a40: lbu       r2,0(r4)
++         95 [xor: 0xa9f2df61] {129} @ 0x00407a50: beq       r2,r0,0x407ba8
++         96 [xor: 0xa9f2df50] {130} @ 0x00407a58: addiu     r4,r4,1
++         97 [xor: 0xa9f2df01] {131} @ 0x00407a60: andi      r2,r4,3
++         98 [xor: 0xa9f2df21] {132} @ 0x00407a68: bne       r2,r0,0x407a40
        94 @ 0x00407a48: beq       r2,r5,0x407b98
        95 @ 0x00407a50: beq       r2,r0,0x407ba8
        96 @ 0x00407a58: addiu     r4,r4,1
        97 @ 0x00407a60: andi      r2,r4,3
++         99 [xor: 0xa9f2df6b] {133} @ 0x00407a40: lbu       r2,0(r4)
++        100 [xor: 0xa9f2df7b] {135} @ 0x00407a48: beq       r2,r5,0x407b98
++        101 [xor: 0xa9f2df6b] {136} @ 0x00407a50: beq       r2,r0,0x407ba8
++        102 [xor: 0xa9f2df5c] {137} @ 0x00407a58: addiu     r4,r4,1
        98 @ 0x00407a68: bne       r2,r0,0x407a40
++        103 [xor: 0xa9f2df05] {138} @ 0x00407a60: andi      r2,r4,3
++        104 [xor: 0xa9f2df15] {139} @ 0x00407a68: bne       r2,r0,0x407a40
        99 @ 0x00407a40: lbu       r2,0(r4)
       100 @ 0x00407a48: beq       r2,r5,0x407b98
       101 @ 0x00407a50: beq       r2,r0,0x407ba8
       102 @ 0x00407a58: addiu     r4,r4,1
       103 @ 0x00407a60: andi      r2,r4,3
++        105 [xor: 0xa9f221fa] {140} @ 0x00407a70: lui       r8,0x7efe
++        106 [xor: 0xa9f2dff5] {141} @ 0x00407a78: ori       r8,r8,65279
++        107 [xor: 0xa9f2f005] {142} @ 0x00407a80: sll       r2,r5,8
++        108 [xor: 0x86ddf015] {143} @ 0x00407a88: or        r9,r5,r2
       104 @ 0x00407a68: bne       r2,r0,0x407a40
++        109 [xor: 0xa9f2df05] {144} @ 0x00407a90: sll       r2,r9,16
++        110 [xor: 0x86dddf35] {145} @ 0x00407a98: or        r9,r9,r2
++        111 [xor: 0x86d3de18] {146} @ 0x00407aa0: lw        r6,0(r4)
++        112 [xor: 0x86d3de08] {148} @ 0x00407aa8: nor       r7,r0,r8
++        113 [xor: 0x86d3de14] {149} @ 0x00407ab0: addiu     r4,r4,4
++        114 [xor: 0x6eb8f326] {150} @ 0x00407ab8: addu      r3,r6,r8
++        115 [xor: 0xd70422c7] {151} @ 0x00407ac0: nor       r2,r0,r6
++        116 [xor: 0x4197f346] {152} @ 0x00407ac8: xor       r3,r3,r2
       105 @ 0x00407a70: lui       r8,0x7efe
++        117 [xor: 0x3f6f0faa] {153} @ 0x00407ad0: and       r3,r3,r7
++        118 [xor: 0x3f6f0f9a] {154} @ 0x00407ad8: bne       r3,r0,0x407b10
++        119 [xor: 0xefbfdf7a] {155} @ 0x00407ae0: xor       r2,r6,r9
++        120 [xor: 0x2afddf2a] {156} @ 0x00407ae8: addu      r3,r2,r8
       106 @ 0x00407a78: ori       r8,r8,65279
       107 @ 0x00407a80: sll       r2,r5,8
       108 @ 0x00407a88: or        r9,r5,r2
++        121 [xor: 0xd50220c5] {157} @ 0x00407af0: nor       r2,r0,r2
++        122 [xor: 0x6cbedf8b] {158} @ 0x00407af8: xor       r3,r3,r2
++        123 [xor: 0x10402085] {159} @ 0x00407b00: and       r3,r3,r7
++        124 [xor: 0x10402125] {160} @ 0x00407b08: beq       r3,r0,0x407aa0
       109 @ 0x00407a90: sll       r2,r9,16
++        125 [xor: 0x1c407a9f] {161} @ 0x00407aa0: lw        r6,0(r4)
       110 @ 0x00407a98: or        r9,r9,r2
       111 @ 0x00407aa0: lw        r6,0(r4)
       112 @ 0x00407aa8: nor       r7,r0,r8
       113 @ 0x00407ab0: addiu     r4,r4,4
++        126 [xor: 0x1c407a8f] {163} @ 0x00407aa8: nor       r7,r0,r8
++        127 [xor: 0x1c407a9b] {164} @ 0x00407ab0: addiu     r4,r4,4
++        128 [xor: 0xf82b0998] {165} @ 0x00407ab8: addu      r3,r6,r8
++        129 [xor: 0xdb047cdd] {166} @ 0x00407ac0: nor       r2,r0,r6
       114 @ 0x00407ab8: addu      r3,r6,r8
       115 @ 0x00407ac0: nor       r2,r0,r6
       116 @ 0x00407ac8: xor       r3,r3,r2
++        130 [xor: 0x4197f746] {167} @ 0x00407ac8: xor       r3,r3,r2
++        131 [xor: 0x3f6f0fae] {168} @ 0x00407ad0: and       r3,r3,r7
++        132 [xor: 0x3f6f0f9e] {169} @ 0x00407ad8: bne       r3,r0,0x407b10
       117 @ 0x00407ad0: and       r3,r3,r7
++        133 [xor: 0xefbfdf7e] {170} @ 0x00407ae0: xor       r2,r6,r9
       118 @ 0x00407ad8: bne       r3,r0,0x407b10
       119 @ 0x00407ae0: xor       r2,r6,r9
       120 @ 0x00407ae8: addu      r3,r2,r8
       121 @ 0x00407af0: nor       r2,r0,r2
++        134 [xor: 0x26fd8534] {171} @ 0x00407ae8: addu      r3,r2,r8
++        135 [xor: 0xd9027adb] {172} @ 0x00407af0: nor       r2,r0,r2
++        136 [xor: 0x6cbedf8f] {173} @ 0x00407af8: xor       r3,r3,r2
++        137 [xor: 0x10402081] {174} @ 0x00407b00: and       r3,r3,r7
       122 @ 0x00407af8: xor       r3,r3,r2
       123 @ 0x00407b00: and       r3,r3,r7
++        138 [xor: 0x10402121] {175} @ 0x00407b08: beq       r3,r0,0x407aa0
       124 @ 0x00407b08: beq       r3,r0,0x407aa0
       125 @ 0x00407aa0: lw        r6,0(r4)
       126 @ 0x00407aa8: nor       r7,r0,r8
       127 @ 0x00407ab0: addiu     r4,r4,4
++        139 [xor: 0x064920da] {176} @ 0x00407aa0: lw        r6,0(r4)
++        140 [xor: 0x064920ca] {178} @ 0x00407aa8: nor       r7,r0,r8
++        141 [xor: 0x064920c6] {179} @ 0x00407ab0: addiu     r4,r4,4
++        142 [xor: 0xf42d5398] {180} @ 0x00407ab8: addu      r3,r6,r8
       128 @ 0x00407ab8: addu      r3,r6,r8
       129 @ 0x00407ac0: nor       r2,r0,r6
       130 @ 0x00407ac8: xor       r3,r3,r2
       131 @ 0x00407ad0: and       r3,r3,r7
++        143 [xor: 0xcd0b7c9c] {181} @ 0x00407ac0: nor       r2,r0,r6
++        144 [xor: 0x4191f75c] {182} @ 0x00407ac8: xor       r3,r3,r2
++        145 [xor: 0x3f6f0fb2] {183} @ 0x00407ad0: and       r3,r3,r7
++        146 [xor: 0x3f6f0f82] {184} @ 0x00407ad8: bne       r3,r0,0x407b10
       132 @ 0x00407ad8: bne       r3,r0,0x407b10
       133 @ 0x00407ae0: xor       r2,r6,r9
       134 @ 0x00407ae8: addu      r3,r2,r8
       135 @ 0x00407af0: nor       r2,r0,r2
++        147 [xor: 0xefbfdf62] {185} @ 0x00407ae0: xor       r2,r6,r9
++        148 [xor: 0x34f6868d] {186} @ 0x00407ae8: addu      r3,r2,r8
++        149 [xor: 0xcb097962] {187} @ 0x00407af0: nor       r2,r0,r2
++        150 [xor: 0x68bcdc6d] {188} @ 0x00407af8: xor       r3,r3,r2
       136 @ 0x00407af8: xor       r3,r3,r2
       137 @ 0x00407b00: and       r3,r3,r7
++        151 [xor: 0x1040219d] {189} @ 0x00407b00: and       r3,r3,r7
++        152 [xor: 0x1040218d] {190} @ 0x00407b08: beq       r3,r0,0x407aa0
       138 @ 0x00407b08: beq       r3,r0,0x407aa0
       139 @ 0x00407aa0: lw        r6,0(r4)
       140 @ 0x00407aa8: nor       r7,r0,r8
       141 @ 0x00407ab0: addiu     r4,r4,4
       142 @ 0x00407ab8: addu      r3,r6,r8
       143 @ 0x00407ac0: nor       r2,r0,r6
       144 @ 0x00407ac8: xor       r3,r3,r2
       145 @ 0x00407ad0: and       r3,r3,r7
       146 @ 0x00407ad8: bne       r3,r0,0x407b10
       147 @ 0x00407ae0: xor       r2,r6,r9
       148 @ 0x00407ae8: addu      r3,r2,r8
       149 @ 0x00407af0: nor       r2,r0,r2
       150 @ 0x00407af8: xor       r3,r3,r2
       151 @ 0x00407b00: and       r3,r3,r7
       152 @ 0x00407b08: beq       r3,r0,0x407aa0
++        153 [xor: 0x104020b2] {201} @ 0x00407b10: lbu       r3,-4(r4)
++        154 [xor: 0xcc0a04b1] {203} @ 0x00407b18: addiu     r2,r4,-4
++        155 [xor: 0xcc0a0419] {204} @ 0x00407b20: beq       r3,r5,0x407bb0
       153 @ 0x00407b10: lbu       r3,-4(r4)
       154 @ 0x00407b18: addiu     r2,r4,-4
       155 @ 0x00407b20: beq       r3,r5,0x407bb0
++        156 [xor: 0xcc0a0491] {216} @ 0x00407bb0: addiu     r29,r29,16
++        157 [xor: 0xcc0a35b1] {217} @ 0x00407bb8: jr        r31
++        158 [xor: 0xcc0a0491] {218} @ 0x00404a90: beq       r2,r0,0x404ab0
++        159 [xor: 0xcc0a04ac] {219} @ 0x00404a98: addu      r16,r0,r2
++        160 [xor: 0xcc0a0481] {220} @ 0x00404aa0: addiu     r4,r16,1
++        161 [xor: 0xcc0a04a1] {221} @ 0x00404aa8: j         0x404a80
++        162 [xor: 0xcc0a0481] {222} @ 0x00404a80: addu      r5,r0,r17
++        163 [xor: 0xcc0a3421] {223} @ 0x00404a88: jal       0x407a20
       156 @ 0x00407bb0: addiu     r29,r29,16
       157 @ 0x00407bb8: jr        r31
++        164 [xor: 0xcc0a0491] {224} @ 0x00407a20: addiu     r29,r29,-16
++        165 [xor: 0xcc0a0481] {225} @ 0x00407a28: andi      r5,r5,255
++        166 [xor: 0xb3f5845c] {226} @ 0x00407a30: andi      r2,r4,3
++        167 [xor: 0xb3f5842c] {227} @ 0x00407a38: beq       r2,r0,0x407a70
       158 @ 0x00404a90: beq       r2,r0,0x404ab0
       159 @ 0x00404a98: addu      r16,r0,r2
       160 @ 0x00404aa0: addiu     r4,r16,1
       161 @ 0x00404aa8: j         0x404a80
       162 @ 0x00404a80: addu      r5,r0,r17
       163 @ 0x00404a88: jal       0x407a20
       164 @ 0x00407a20: addiu     r29,r29,-16
       165 @ 0x00407a28: andi      r5,r5,255
       166 @ 0x00407a30: andi      r2,r4,3
       167 @ 0x00407a38: beq       r2,r0,0x407a70
++        168 [xor: 0xb3f58429] {237} @ 0x00407a40: lbu       r2,0(r4)
++        169 [xor: 0xb3f58439] {239} @ 0x00407a48: beq       r2,r5,0x407b98
++        170 [xor: 0xb3f58429] {240} @ 0x00407a50: beq       r2,r0,0x407ba8
++        171 [xor: 0xb3f5841a] {241} @ 0x00407a58: addiu     r4,r4,1
++        172 [xor: 0xb3f5845c] {242} @ 0x00407a60: andi      r2,r4,3
++        173 [xor: 0xb3f5847c] {243} @ 0x00407a68: bne       r2,r0,0x407a40
++        174 [xor: 0xb3f5843b] {244} @ 0x00407a40: lbu       r2,0(r4)
++        175 [xor: 0xb3f5842b] {246} @ 0x00407a48: beq       r2,r5,0x407b98
++        176 [xor: 0xb3f5843b] {247} @ 0x00407a50: beq       r2,r0,0x407ba8
++        177 [xor: 0xb3f5840a] {248} @ 0x00407a58: addiu     r4,r4,1
++        178 [xor: 0xb3f5845c] {249} @ 0x00407a60: andi      r2,r4,3
++        179 [xor: 0xb3f5847c] {250} @ 0x00407a68: bne       r2,r0,0x407a40
       168 @ 0x00407a40: lbu       r2,0(r4)
++        180 [xor: 0xb3f5842c] {251} @ 0x00407a40: lbu       r2,0(r4)
++        181 [xor: 0xb3f5843c] {253} @ 0x00407a48: beq       r2,r5,0x407b98
++        182 [xor: 0xb3f5842c] {254} @ 0x00407a50: beq       r2,r0,0x407ba8
++        183 [xor: 0xb3f58403] {255} @ 0x00407a58: addiu     r4,r4,1
       169 @ 0x00407a48: beq       r2,r5,0x407b98
       170 @ 0x00407a50: beq       r2,r0,0x407ba8
       171 @ 0x00407a58: addiu     r4,r4,1
       172 @ 0x00407a60: andi      r2,r4,3
++        184 [xor: 0xb3f58440] {256} @ 0x00407a60: andi      r2,r4,3
++        185 [xor: 0xb3f58450] {257} @ 0x00407a68: bne       r2,r0,0x407a40
       173 @ 0x00407a68: bne       r2,r0,0x407a40
       174 @ 0x00407a40: lbu       r2,0(r4)
       175 @ 0x00407a48: beq       r2,r5,0x407b98
       176 @ 0x00407a50: beq       r2,r0,0x407ba8
       177 @ 0x00407a58: addiu     r4,r4,1
       178 @ 0x00407a60: andi      r2,r4,3
       179 @ 0x00407a68: bne       r2,r0,0x407a40
       180 @ 0x00407a40: lbu       r2,0(r4)
       181 @ 0x00407a48: beq       r2,r5,0x407b98
       182 @ 0x00407a50: beq       r2,r0,0x407ba8
       183 @ 0x00407a58: addiu     r4,r4,1
       184 @ 0x00407a60: andi      r2,r4,3
       185 @ 0x00407a68: bne       r2,r0,0x407a40
++        186 [xor: 0xb3f57abf] {270} @ 0x00407a70: lui       r8,0x7efe
++        187 [xor: 0xb3f584b0] {271} @ 0x00407a78: ori       r8,r8,65279
++        188 [xor: 0xb3f5ab40] {272} @ 0x00407a80: sll       r2,r5,8
++        189 [xor: 0x9cdaab50] {273} @ 0x00407a88: or        r9,r5,r2
++        190 [xor: 0xb3f58440] {274} @ 0x00407a90: sll       r2,r9,16
++        191 [xor: 0x9cda8470] {275} @ 0x00407a98: or        r9,r9,r2
++        192 [xor: 0x83d3dd1b] {276} @ 0x00407aa0: lw        r6,0(r4)
++        193 [xor: 0x83d3dd0b] {278} @ 0x00407aa8: nor       r7,r0,r8
++        194 [xor: 0x83d3dd1f] {279} @ 0x00407ab0: addiu     r4,r4,4
++        195 [xor: 0x68b8f133] {280} @ 0x00407ab8: addu      r3,r6,r8
++        196 [xor: 0xd40423c8] {281} @ 0x00407ac0: nor       r2,r0,r6
++        197 [xor: 0x4797f153] {282} @ 0x00407ac8: xor       r3,r3,r2
       186 @ 0x00407a70: lui       r8,0x7efe
++        198 [xor: 0x3f6f0fbb] {283} @ 0x00407ad0: and       r3,r3,r7
++        199 [xor: 0x3f6f0f8b] {284} @ 0x00407ad8: bne       r3,r0,0x407b10
++        200 [xor: 0xefbfdf6b] {285} @ 0x00407ae0: xor       r2,r6,r9
++        201 [xor: 0x2dfdde21] {286} @ 0x00407ae8: addu      r3,r2,r8
       187 @ 0x00407a78: ori       r8,r8,65279
       188 @ 0x00407a80: sll       r2,r5,8
       189 @ 0x00407a88: or        r9,r5,r2
++        202 [xor: 0xd20221ce] {287} @ 0x00407af0: nor       r2,r0,r2
++        203 [xor: 0x6ebedd9a] {288} @ 0x00407af8: xor       r3,r3,r2
++        204 [xor: 0x10402094] {289} @ 0x00407b00: and       r3,r3,r7
++        205 [xor: 0x10402134] {290} @ 0x00407b08: beq       r3,r0,0x407aa0
       190 @ 0x00407a90: sll       r2,r9,16
++        206 [xor: 0x7c4b638f] {291} @ 0x00407aa0: lw        r6,0(r4)
       191 @ 0x00407a98: or        r9,r9,r2
       192 @ 0x00407aa0: lw        r6,0(r4)
       193 @ 0x00407aa8: nor       r7,r0,r8
       194 @ 0x00407ab0: addiu     r4,r4,4
++        207 [xor: 0x7c4b639f] {293} @ 0x00407aa8: nor       r7,r0,r8
++        208 [xor: 0x7c4b6383] {294} @ 0x00407ab0: addiu     r4,r4,4
++        209 [xor: 0x032d0e9d] {295} @ 0x00407ab8: addu      r3,r6,r8
++        210 [xor: 0x400962d9] {296} @ 0x00407ac0: nor       r2,r0,r6
       195 @ 0x00407ab8: addu      r3,r6,r8
       196 @ 0x00407ac0: nor       r2,r0,r6
       197 @ 0x00407ac8: xor       r3,r3,r2
++        211 [xor: 0xbf91f359] {297} @ 0x00407ac8: xor       r3,r3,r2
++        212 [xor: 0xbf6f0fb7] {298} @ 0x00407ad0: and       r3,r3,r7
++        213 [xor: 0xbf6f0e77] {299} @ 0x00407ad8: bne       r3,r0,0x407b10
       198 @ 0x00407ad0: and       r3,r3,r7
       199 @ 0x00407ad8: bne       r3,r0,0x407b10
       200 @ 0x00407ae0: xor       r2,r6,r9
       201 @ 0x00407ae8: addu      r3,r2,r8
       202 @ 0x00407af0: nor       r2,r0,r2
       203 @ 0x00407af8: xor       r3,r3,r2
       204 @ 0x00407b00: and       r3,r3,r7
       205 @ 0x00407b08: beq       r3,r0,0x407aa0
       206 @ 0x00407aa0: lw        r6,0(r4)
       207 @ 0x00407aa8: nor       r7,r0,r8
       208 @ 0x00407ab0: addiu     r4,r4,4
       209 @ 0x00407ab8: addu      r3,r6,r8
       210 @ 0x00407ac0: nor       r2,r0,r6
       211 @ 0x00407ac8: xor       r3,r3,r2
       212 @ 0x00407ad0: and       r3,r3,r7
       213 @ 0x00407ad8: bne       r3,r0,0x407b10
++        214 [xor: 0x3f6f0fd8] {311} @ 0x00407b10: lbu       r3,-4(r4)
++        215 [xor: 0xbf081eac] {313} @ 0x00407b18: addiu     r2,r4,-4
++        216 [xor: 0xbf081e9c] {314} @ 0x00407b20: beq       r3,r5,0x407bb0
++        217 [xor: 0xbf081e8c] {315} @ 0x00407b28: beq       r3,r0,0x407ba8
++        218 [xor: 0xbf081e9d] {316} @ 0x00407b30: lbu       r3,-3(r4)
++        219 [xor: 0xbf081eec] {318} @ 0x00407b38: addiu     r2,r4,-3
++        220 [xor: 0xbf081e9c] {319} @ 0x00407b40: beq       r3,r5,0x407bb0
       214 @ 0x00407b10: lbu       r3,-4(r4)
       215 @ 0x00407b18: addiu     r2,r4,-4
       216 @ 0x00407b20: beq       r3,r5,0x407bb0
       217 @ 0x00407b28: beq       r3,r0,0x407ba8
       218 @ 0x00407b30: lbu       r3,-3(r4)
       219 @ 0x00407b38: addiu     r2,r4,-3
       220 @ 0x00407b40: beq       r3,r5,0x407bb0
++        221 [xor: 0xbf081e8c] {328} @ 0x00407b48: beq       r3,r0,0x407ba8
       221 @ 0x00407b48: beq       r3,r0,0x407ba8
++        222 [xor: 0xbf081e95] {329} @ 0x00407b50: lbu       r3,-2(r4)
++        223 [xor: 0xbf081ea6] {331} @ 0x00407b58: addiu     r2,r4,-2
       222 @ 0x00407b50: lbu       r3,-2(r4)
       223 @ 0x00407b58: addiu     r2,r4,-2
++        224 [xor: 0xbf081e96] {332} @ 0x00407b60: beq       r3,r5,0x407bb0
++        225 [xor: 0xbf081e86] {333} @ 0x00407b68: beq       r3,r0,0x407ba8
       224 @ 0x00407b60: beq       r3,r5,0x407bb0
       225 @ 0x00407b68: beq       r3,r0,0x407ba8
++        226 [xor: 0xbf081ef1] {334} @ 0x00407b70: lbu       r3,-1(r4)
++        227 [xor: 0xbf081e00] {336} @ 0x00407b78: addiu     r2,r4,-1
       226 @ 0x00407b70: lbu       r3,-1(r4)
       227 @ 0x00407b78: addiu     r2,r4,-1
++        228 [xor: 0xbf081ef0] {337} @ 0x00407b80: beq       r3,r5,0x407bb0
++        229 [xor: 0xbf081ee0] {338} @ 0x00407b88: bne       r3,r0,0x407aa0
       228 @ 0x00407b80: beq       r3,r5,0x407bb0
       229 @ 0x00407b88: bne       r3,r0,0x407aa0
++        230 [xor: 0xbf081ec0] {339} @ 0x00407b90: j         0x407ba8
       230 @ 0x00407b90: j         0x407ba8
++        231 [xor: 0xc0f79e37] {340} @ 0x00407ba8: addu      r2,r0,r0
++        232 [xor: 0xc0f79e37] {341} @ 0x00407bb0: addiu     r29,r29,16
++        233 [xor: 0xc0f7af17] {342} @ 0x00407bb8: jr        r31
++        234 [xor: 0xc0f79e1f] {343} @ 0x00404a90: beq       r2,r0,0x404ab0
       231 @ 0x00407ba8: addu      r2,r0,r0
       232 @ 0x00407bb0: addiu     r29,r29,16
       233 @ 0x00407bb8: jr        r31
       234 @ 0x00404a90: beq       r2,r0,0x404ab0
++        235 [xor: 0xbf081efb] {349} @ 0x00404ab0: addu      r2,r0,r16
++        236 [xor: 0xbf085e83] {350} @ 0x00404ab8: lw        r31,24(r29)
       235 @ 0x00404ab0: addu      r2,r0,r16
       236 @ 0x00404ab8: lw        r31,24(r29)
++        237 [xor: 0xc0f7ded8] {352} @ 0x00404ac0: lw        r17,20(r29)
++        238 [xor: 0xc0f7de00] {354} @ 0x00404ac8: lw        r16,16(r29)
++        239 [xor: 0xc0f7de30] {356} @ 0x00404ad0: addiu     r29,r29,32
++        240 [xor: 0xc0f79e78] {357} @ 0x00404ad8: jr        r31
       237 @ 0x00404ac0: lw        r17,20(r29)
       238 @ 0x00404ac8: lw        r16,16(r29)
       239 @ 0x00404ad0: addiu     r29,r29,32
       240 @ 0x00404ad8: jr        r31
++        241 [xor: 0xc0f7de10] {358} @ 0x00400a98: bne       r2,r0,0x400ab0
       241 @ 0x00400a98: bne       r2,r0,0x400ab0
++        242 [xor: 0xc0f7de31] {359} @ 0x00400ab0: addiu     r2,r2,1
++        243 [xor: 0xc0f7de41] {360} @ 0x00400ab8: sw        r2,-32668(r28)
       242 @ 0x00400ab0: addiu     r2,r2,1
       243 @ 0x00400ab8: sw        r2,-32668(r28)
++        244 [xor: 0xc0f7d151] {362} @ 0x00400ac0: lw        r31,20(r29)
++        245 [xor: 0xbf085144] {364} @ 0x00400ac8: lw        r16,16(r29)
++        246 [xor: 0xbf08513c] {366} @ 0x00400ad0: addiu     r29,r29,24
++        247 [xor: 0xbf085e14] {367} @ 0x00400ad8: jr        r31
++        248 [xor: 0xbf085684] {368} @ 0x004005f8: lw        r31,16(r29)
       244 @ 0x00400ac0: lw        r31,20(r29)
       245 @ 0x00400ac8: lw        r16,16(r29)
       246 @ 0x00400ad0: addiu     r29,r29,24
       247 @ 0x00400ad8: jr        r31
       248 @ 0x004005f8: lw        r31,16(r29)
++        249 [xor: 0xbf08554c] {370} @ 0x00400600: addiu     r29,r29,24
++        250 [xor: 0xbf0852fc] {371} @ 0x00400608: jr        r31
++        251 [xor: 0xbf08554c] {372} @ 0x004001b0: sw        r0,-32416(r28)
++        252 [xor: 0xc0f7d5e5] {374} @ 0x004001b8: addu      r4,r0,r16
       249 @ 0x00400600: addiu     r29,r29,24
       250 @ 0x00400608: jr        r31
       251 @ 0x004001b0: sw        r0,-32416(r28)
       252 @ 0x004001b8: addu      r4,r0,r16
++        253 [xor: 0xbf0855be] {375} @ 0x004001c0: addu      r5,r0,r17
++        254 [xor: 0xc090bbcd] {376} @ 0x004001c8: addu      r6,r0,r18
++        255 [xor: 0xc090bb9d] {377} @ 0x004001d0: jal       0x4001f0
       253 @ 0x004001c0: addu      r5,r0,r17
       254 @ 0x004001c8: addu      r6,r0,r18
       255 @ 0x004001d0: jal       0x4001f0
++        256 [xor: 0xc090bb8d] {378} @ 0x004001f0: addiu     r29,r29,-24
++        257 [xor: 0xc090b87d] {379} @ 0x004001f8: sw        r31,16(r29)
       256 @ 0x004001f0: addiu     r29,r29,-24
       257 @ 0x004001f8: sw        r31,16(r29)
++        258 [xor: 0xc090bfdd] {381} @ 0x00400200: jal       0x400588
       258 @ 0x00400200: jal       0x400588
++        259 [xor: 0xbf6f3880] {382} @ 0x00400588: lw        r2,-32732(r28)
++        260 [xor: 0xbf6f38f8] {384} @ 0x00400590: addiu     r29,r29,-24
++        261 [xor: 0xbf6f38c8] {385} @ 0x00400598: sw        r31,16(r29)
++        262 [xor: 0xbf6f38f8] {387} @ 0x004005a0: bne       r2,r0,0x4005c0
++        263 [xor: 0xbf6f38e9] {388} @ 0x004005a8: addiu     r2,r0,1
++        264 [xor: 0xbf6f38f9] {389} @ 0x004005b0: sw        r2,-32732(r28)
++        265 [xor: 0xbf6f3ee1] {391} @ 0x004005b8: jal       0x400460
       259 @ 0x00400588: lw        r2,-32732(r28)
       260 @ 0x00400590: addiu     r29,r29,-24
       261 @ 0x00400598: sw        r31,16(r29)
       262 @ 0x004005a0: bne       r2,r0,0x4005c0
       263 @ 0x004005a8: addiu     r2,r0,1
       264 @ 0x004005b0: sw        r2,-32732(r28)
       265 @ 0x004005b8: jal       0x400460
++        266 [xor: 0xbf6f3f11] {392} @ 0x00400460: addiu     r29,r29,-32
++        267 [xor: 0xbf6f3f01] {393} @ 0x00400468: sw        r31,24(r29)
++        268 [xor: 0xbf6f3f11] {395} @ 0x00400470: sw        r17,20(r29)
++        269 [xor: 0xbf6f3fe1] {397} @ 0x00400478: sw        r16,16(r29)
       266 @ 0x00400460: addiu     r29,r29,-32
       267 @ 0x00400468: sw        r31,24(r29)
       268 @ 0x00400470: sw        r17,20(r29)
       269 @ 0x00400478: sw        r16,16(r29)
++        270 [xor: 0xaf6f3f11] {399} @ 0x00400480: lui       r3,0x1000
++        271 [xor: 0xaf6f2801] {400} @ 0x00400488: addiu     r3,r3,5888
++        272 [xor: 0xaf6f2810] {401} @ 0x00400490: lw        r4,0(r3)
++        273 [xor: 0x5090d7de] {403} @ 0x00400498: addiu     r2,r0,-1
       270 @ 0x00400480: lui       r3,0x1000
       271 @ 0x00400488: addiu     r3,r3,5888
++        274 [xor: 0x5090d7b6] {404} @ 0x004004a0: bne       r4,r2,0x4004f0
       272 @ 0x00400490: lw        r4,0(r3)
       273 @ 0x00400498: addiu     r2,r0,-1
       274 @ 0x004004a0: bne       r4,r2,0x4004f0
++        275 [xor: 0x2f6f57ea] {409} @ 0x004004f0: addu      r17,r0,r4
++        276 [xor: 0x2f6f5652] {410} @ 0x004004f8: beq       r17,r0,0x400548
       275 @ 0x004004f0: addu      r17,r0,r4
       276 @ 0x004004f8: beq       r17,r0,0x400548
++        277 [xor: 0x2f2f57fa] {411} @ 0x00400548: lui       r4,0x40
++        278 [xor: 0x2f2f540a] {412} @ 0x00400550: addiu     r4,r4,992
++        279 [xor: 0x2f2f59ba] {413} @ 0x00400558: jal       0x400840
       277 @ 0x00400548: lui       r4,0x40
       278 @ 0x00400550: addiu     r4,r4,992
       279 @ 0x00400558: jal       0x400840
++        280 [xor: 0x2f2f54b2] {414} @ 0x00400840: addiu     r29,r29,-24
++        281 [xor: 0x2f2f54a2] {415} @ 0x00400848: sw        r16,16(r29)
++        282 [xor: 0x2f6f5753] {417} @ 0x00400850: addu      r16,r0,r4
++        283 [xor: 0x2f6f5763] {418} @ 0x00400858: sw        r31,20(r29)
       280 @ 0x00400840: addiu     r29,r29,-24
       281 @ 0x00400848: sw        r16,16(r29)
       282 @ 0x00400850: addu      r16,r0,r4
       283 @ 0x00400858: sw        r31,20(r29)
++        284 [xor: 0x2f6f5afb] {420} @ 0x00400860: jal       0x4008c8
       284 @ 0x00400860: jal       0x4008c8
++        285 [xor: 0xbe6e484b] {421} @ 0x004008c8: lw        r7,-32688(r28)
++        286 [xor: 0xbe6e48bb] {423} @ 0x004008d0: addiu     r29,r29,-32
++        287 [xor: 0xbe6e488b] {424} @ 0x004008d8: sw        r31,24(r29)
       285 @ 0x004008c8: lw        r7,-32688(r28)
       286 @ 0x004008d0: addiu     r29,r29,-32
       287 @ 0x004008d8: sw        r31,24(r29)
++        288 [xor: 0xbe6e48bb] {426} @ 0x004008e0: beq       r7,r0,0x400980
++        289 [xor: 0x4191b754] {427} @ 0x004008e8: lw        r2,4(r7)
++        290 [xor: 0x41d1b4a4] {429} @ 0x004008f0: addu      r4,r0,r0
++        291 [xor: 0x41d1b50c] {430} @ 0x004008f8: beq       r2,r0,0x400958
       288 @ 0x004008e0: beq       r7,r0,0x400980
       289 @ 0x004008e8: lw        r2,4(r7)
       290 @ 0x004008f0: addu      r4,r0,r0
       291 @ 0x004008f8: beq       r2,r0,0x400958
++        292 [xor: 0x51d1a394] {431} @ 0x00400958: lw        r3,4(r7)
       292 @ 0x00400958: lw        r3,4(r7)
++        293 [xor: 0x51d1a3a5] {433} @ 0x00400960: sltiu     r2,r3,32
++        294 [xor: 0x51d1a335] {434} @ 0x00400968: bne       r2,r0,0x4009f0
       293 @ 0x00400960: sltiu     r2,r3,32
       294 @ 0x00400968: bne       r2,r0,0x4009f0
++        295 [xor: 0x51d1a3a5] {435} @ 0x004009f0: addiu     r2,r3,1
++        296 [xor: 0x51d1a055] {436} @ 0x004009f8: sw        r2,4(r7)
       295 @ 0x004009f0: addiu     r2,r3,1
       296 @ 0x004009f8: sw        r2,4(r7)
++        297 [xor: 0x51d1a3a4] {438} @ 0x00400a00: sll       r2,r3,1
++        298 [xor: 0x51d1a3b4] {439} @ 0x00400a08: addu      r2,r2,r3
++        299 [xor: 0x51d1a3a4] {440} @ 0x00400a10: sll       r2,r2,2
++        300 [xor: 0x51d1a39c] {441} @ 0x00400a18: addiu     r2,r2,8
       297 @ 0x00400a00: sll       r2,r3,1
       298 @ 0x00400a08: addu      r2,r2,r3
       299 @ 0x00400a10: sll       r2,r2,2
       300 @ 0x00400a18: addiu     r2,r2,8
++        301 [xor: 0x41d1b0ac] {442} @ 0x00400a20: addu      r2,r7,r2
++        302 [xor: 0x41d1b0b4] {443} @ 0x00400a28: j         0x400a38
       301 @ 0x00400a20: addu      r2,r7,r2
       302 @ 0x00400a28: j         0x400a38
++        303 [xor: 0x41d1b0dc] {444} @ 0x00400a38: lw        r31,24(r29)
       303 @ 0x00400a38: lw        r31,24(r29)
++        304 [xor: 0x41d1b04c] {446} @ 0x00400a40: addiu     r29,r29,32
++        305 [xor: 0x41d1b264] {447} @ 0x00400a48: jr        r31
++        306 [xor: 0x51d1a354] {448} @ 0x00400868: addu      r4,r0,r2
++        307 [xor: 0x51d1a344] {449} @ 0x00400870: beq       r4,r0,0x4008a0
++        308 [xor: 0x41d1b0bc] {450} @ 0x00400878: addu      r2,r0,r0
       304 @ 0x00400a40: addiu     r29,r29,32
       305 @ 0x00400a48: jr        r31
       306 @ 0x00400868: addu      r4,r0,r2
       307 @ 0x00400870: beq       r4,r0,0x4008a0
       308 @ 0x00400878: addu      r2,r0,r0
++        309 [xor: 0x41d1b04e] {451} @ 0x00400880: addiu     r3,r0,2
++        310 [xor: 0x41d1b05e] {452} @ 0x00400888: sw        r3,0(r4)
++        311 [xor: 0x41d1b04e] {454} @ 0x00400890: sw        r16,4(r4)
++        312 [xor: 0x41d1b076] {456} @ 0x00400898: j         0x4008a8
       309 @ 0x00400880: addiu     r3,r0,2
       310 @ 0x00400888: sw        r3,0(r4)
       311 @ 0x00400890: sw        r16,4(r4)
       312 @ 0x00400898: j         0x4008a8
++        313 [xor: 0x41d1bd56] {457} @ 0x004008a8: lw        r31,20(r29)
++        314 [xor: 0x4191bea7] {459} @ 0x004008b0: lw        r16,16(r29)
++        315 [xor: 0x4191becf] {461} @ 0x004008b8: addiu     r29,r29,24
++        316 [xor: 0x4191b317] {462} @ 0x004008c0: jr        r31
       313 @ 0x004008a8: lw        r31,20(r29)
       314 @ 0x004008b0: lw        r16,16(r29)
       315 @ 0x004008b8: addiu     r29,r29,24
       316 @ 0x004008c0: jr        r31
++        317 [xor: 0x4191be1f] {463} @ 0x00400560: lw        r31,24(r29)
++        318 [xor: 0x3e6e3e0b] {465} @ 0x00400568: lw        r17,20(r29)
++        319 [xor: 0x3e6e3e1b] {467} @ 0x00400570: lw        r16,16(r29)
++        320 [xor: 0x3e6e3ecb] {469} @ 0x00400578: addiu     r29,r29,32
++        321 [xor: 0x3e6e3e73] {470} @ 0x00400580: jr        r31
       317 @ 0x00400560: lw        r31,24(r29)
       318 @ 0x00400568: lw        r17,20(r29)
       319 @ 0x00400570: lw        r16,16(r29)
       320 @ 0x00400578: addiu     r29,r29,32
       321 @ 0x00400580: jr        r31
++        322 [xor: 0x3e6e39f3] {471} @ 0x004005c0: lw        r31,16(r29)
++        323 [xor: 0x3e6e398b] {473} @ 0x004005c8: addiu     r29,r29,24
++        324 [xor: 0x3e6e3e4b] {474} @ 0x004005d0: jr        r31
++        325 [xor: 0x5191aa86] {475} @ 0x00400208: dlw       r6,-32768(r28)
++        326 [xor: 0x5191abfe] {477} @ 0x00400210: lw        r4,-32700(r28)
++        327 [xor: 0x3e6e2bca] {479} @ 0x00400218: lui       r5,0x1000
       322 @ 0x004005c0: lw        r31,16(r29)
       323 @ 0x004005c8: addiu     r29,r29,24
       324 @ 0x004005d0: jr        r31
++        328 [xor: 0x3e6e2bfa] {480} @ 0x00400220: addiu     r5,r5,0
++        329 [xor: 0x3e6e2beb] {481} @ 0x00400228: addiu     r6,r6,1
++        330 [xor: 0x3e6e2bfb] {482} @ 0x00400230: sltiu     r2,r6,1
++        331 [xor: 0x3e6e2b8b] {483} @ 0x00400238: addu      r7,r7,r2
       325 @ 0x00400208: dlw       r6,-32768(r28)
       326 @ 0x00400210: lw        r4,-32700(r28)
       327 @ 0x00400218: lui       r5,0x1000
       328 @ 0x00400220: addiu     r5,r5,0
       329 @ 0x00400228: addiu     r6,r6,1
       330 @ 0x00400230: sltiu     r2,r6,1
       331 @ 0x00400238: addu      r7,r7,r2
++        332 [xor: 0x3e6e2e03] {484} @ 0x00400240: jal       0x4007f0
       332 @ 0x00400240: jal       0x4007f0
++        333 [xor: 0x3e6e2bbb] {485} @ 0x004007f0: sw        r5,4(r29)
++        334 [xor: 0x3e6e244b] {487} @ 0x004007f8: sw        r6,8(r29)
       333 @ 0x004007f0: sw        r5,4(r29)
       334 @ 0x004007f8: sw        r6,8(r29)
++        335 [xor: 0x3e6e2bbb] {489} @ 0x00400800: sw        r7,12(r29)
++        336 [xor: 0x3e6e2bc3] {491} @ 0x00400808: addiu     r29,r29,-24
++        337 [xor: 0x4191540a] {492} @ 0x00400810: addiu     r6,r29,32
++        338 [xor: 0x4191543a] {493} @ 0x00400818: sw        r31,16(r29)
       335 @ 0x00400800: sw        r7,12(r29)
       336 @ 0x00400808: addiu     r29,r29,-24
       337 @ 0x00400810: addiu     r6,r29,32
       338 @ 0x00400818: sw        r31,16(r29)
++        339 [xor: 0x41915bd2] {495} @ 0x00400820: jal       0x400d90
       339 @ 0x00400820: jal       0x400d90
++        340 [xor: 0x419157d2] {496} @ 0x00400d90: addiu     r29,r29,-2488
++        341 [xor: 0x419157e2] {497} @ 0x00400d98: sw        r20,2464(r29)
       340 @ 0x00400d90: addiu     r29,r29,-2488
       341 @ 0x00400d98: sw        r20,2464(r29)
++        342 [xor: 0x519145b2] {499} @ 0x00400da0: addu      r20,r0,r4
++        343 [xor: 0x519145a2] {500} @ 0x00400da8: sw        r16,2448(r29)
++        344 [xor: 0x419145b3] {502} @ 0x00400db0: addu      r16,r0,r5
++        345 [xor: 0x419145c3] {503} @ 0x00400db8: sw        r21,2468(r29)
       342 @ 0x00400da0: addu      r20,r0,r4
       343 @ 0x00400da8: sw        r16,2448(r29)
       344 @ 0x00400db0: addu      r16,r0,r5
       345 @ 0x00400db8: sw        r21,2468(r29)
++        346 [xor: 0x419145b3] {505} @ 0x00400dc0: addu      r21,r0,r0
++        347 [xor: 0x419145a3] {506} @ 0x00400dc8: sw        r31,2484(r29)
++        348 [xor: 0x419145b3] {508} @ 0x00400dd0: sw        r30,2480(r29)
++        349 [xor: 0x41914583] {510} @ 0x00400dd8: sw        r23,2476(r29)
       346 @ 0x00400dc0: addu      r21,r0,r0
       347 @ 0x00400dc8: sw        r31,2484(r29)
       348 @ 0x00400dd0: sw        r30,2480(r29)
       349 @ 0x00400dd8: sw        r23,2476(r29)
++        350 [xor: 0x419145b3] {512} @ 0x00400de0: sw        r22,2472(r29)
++        351 [xor: 0x419145a3] {514} @ 0x00400de8: sw        r19,2460(r29)
++        352 [xor: 0x419145b3] {516} @ 0x00400df0: sw        r18,2456(r29)
++        353 [xor: 0x41914643] {518} @ 0x00400df8: sw        r17,2452(r29)
       350 @ 0x00400de0: sw        r22,2472(r29)
       351 @ 0x00400de8: sw        r19,2460(r29)
       352 @ 0x00400df0: sw        r18,2456(r29)
       353 @ 0x00400df8: sw        r17,2452(r29)
++        354 [xor: 0x419145b3] {520} @ 0x00400e00: sw        r6,2496(r29)
++        355 [xor: 0x419145a3] {522} @ 0x00400e08: beq       r20,r0,0x400e80
       354 @ 0x00400e00: sw        r6,2496(r29)
       355 @ 0x00400e08: beq       r20,r0,0x400e80
++        356 [xor: 0xbf4bfb5a] {523} @ 0x00400e10: lw        r3,0(r20)
++        357 [xor: 0x41a6fb6a] {525} @ 0x00400e18: lui       r2,0xfeed
++        358 [xor: 0x41a641e4] {526} @ 0x00400e20: ori       r2,r2,47806
++        359 [xor: 0x41a64184] {527} @ 0x00400e28: bne       r3,r2,0x400e40
       356 @ 0x00400e10: lw        r3,0(r20)
       357 @ 0x00400e18: lui       r2,0xfeed
       358 @ 0x00400e20: ori       r2,r2,47806
       359 @ 0x00400e28: bne       r3,r2,0x400e40
++        360 [xor: 0x41a641e4] {528} @ 0x00400e40: lw        r3,0(r20)
++        361 [xor: 0x4191fb4a] {530} @ 0x00400e48: lui       r2,0xfeda
++        362 [xor: 0x419145b1] {531} @ 0x00400e50: ori       r2,r2,48875
++        363 [xor: 0x41914581] {532} @ 0x00400e58: bne       r3,r2,0x400e80
       360 @ 0x00400e40: lw        r3,0(r20)
       361 @ 0x00400e48: lui       r2,0xfeda
       362 @ 0x00400e50: ori       r2,r2,48875
       363 @ 0x00400e58: bne       r3,r2,0x400e80
++        364 [xor: 0xbf4bfb58] {533} @ 0x00400e60: lw        r2,28(r20)
++        365 [xor: 0xbf4bfb48] {535} @ 0x00400e68: andi      r2,r2,2
++        366 [xor: 0xbf4bfb58] {536} @ 0x00400e70: beq       r2,r0,0x400e80
++        367 [xor: 0xbf4bfb88] {537} @ 0x00400e78: bne       r16,r0,0x400ea0
       364 @ 0x00400e60: lw        r2,28(r20)
       365 @ 0x00400e68: andi      r2,r2,2
       366 @ 0x00400e70: beq       r2,r0,0x400e80
       367 @ 0x00400e78: bne       r16,r0,0x400ea0
++        368 [xor: 0xbf4bfb5a] {538} @ 0x00400ea0: lw        r2,76(r20)
++        369 [xor: 0xbf4bfb4a] {540} @ 0x00400ea8: andi      r2,r2,16384
++        370 [xor: 0xbf4bfb5a] {541} @ 0x00400eb0: bne       r2,r0,0x400ee0
++        371 [xor: 0xbf4bfb2a] {542} @ 0x00400eb8: addu      r4,r0,r20
++        372 [xor: 0x50b404a5] {543} @ 0x00400ec0: addiu     r5,r0,-1
++        373 [xor: 0x50b457dd] {544} @ 0x00400ec8: jal       0x405b40
       368 @ 0x00400ea0: lw        r2,76(r20)
       369 @ 0x00400ea8: andi      r2,r2,16384
       370 @ 0x00400eb0: bne       r2,r0,0x400ee0
       371 @ 0x00400eb8: addu      r4,r0,r20
       372 @ 0x00400ec0: addiu     r5,r0,-1
       373 @ 0x00400ec8: jal       0x405b40
++        374 [xor: 0x50b40185] {545} @ 0x00405b40: addiu     r29,r29,-40
++        375 [xor: 0x50b40195] {546} @ 0x00405b48: sw        r16,16(r29)
++        376 [xor: 0x50b413e5] {548} @ 0x00405b50: addu      r16,r0,r4
++        377 [xor: 0x50b413d5] {549} @ 0x00405b58: sw        r18,24(r29)
       374 @ 0x00405b40: addiu     r29,r29,-40
       375 @ 0x00405b48: sw        r16,16(r29)
       376 @ 0x00405b50: addu      r16,r0,r4
       377 @ 0x00405b58: sw        r18,24(r29)
++        378 [xor: 0xd0b46c16] {551} @ 0x00405b60: addu      r18,r0,r5
++        379 [xor: 0xd0b46c06] {552} @ 0x00405b68: nor       r2,r0,r18
++        380 [xor: 0xd0b46c16] {553} @ 0x00405b70: sw        r19,28(r29)
++        381 [xor: 0xd0b46ce7] {555} @ 0x00405b78: sltiu     r19,r2,1
       378 @ 0x00405b60: addu      r18,r0,r5
       379 @ 0x00405b68: nor       r2,r0,r18
       380 @ 0x00405b70: sw        r19,28(r29)
       381 @ 0x00405b78: sltiu     r19,r2,1
++        382 [xor: 0xd0b46c17] {556} @ 0x00405b80: sw        r31,32(r29)
++        383 [xor: 0xd0b46c07] {558} @ 0x00405b88: sw        r17,20(r29)
++        384 [xor: 0xd0b46c17] {560} @ 0x00405b90: beq       r16,r0,0x405c00
++        385 [xor: 0xd0b46c27] {561} @ 0x00405b98: lw        r3,0(r16)
       382 @ 0x00405b80: sw        r31,32(r29)
       383 @ 0x00405b88: sw        r17,20(r29)
       384 @ 0x00405b90: beq       r16,r0,0x405c00
       385 @ 0x00405b98: lw        r3,0(r16)
++        386 [xor: 0x2e596c17] {563} @ 0x00405ba0: lui       r2,0xfeed
++        387 [xor: 0x2e59d6b9] {564} @ 0x00405ba8: ori       r2,r2,47806
++        388 [xor: 0x2e59d6d9] {565} @ 0x00405bb0: bne       r3,r2,0x405bc8
       386 @ 0x00405ba0: lui       r2,0xfeed
       387 @ 0x00405ba8: ori       r2,r2,47806
       388 @ 0x00405bb0: bne       r3,r2,0x405bc8
++        389 [xor: 0x2e59d6b9] {568} @ 0x00405bc8: lw        r3,0(r16)
++        390 [xor: 0x2e6e6c17] {570} @ 0x00405bd0: lui       r2,0xfeda
++        391 [xor: 0x2e6ed2cc] {571} @ 0x00405bd8: ori       r2,r2,48875
       389 @ 0x00405bc8: lw        r3,0(r16)
       390 @ 0x00405bd0: lui       r2,0xfeda
       391 @ 0x00405bd8: ori       r2,r2,48875
++        392 [xor: 0x2e6ed2fc] {572} @ 0x00405be0: bne       r3,r2,0x405c00
++        393 [xor: 0xd0b46c05] {573} @ 0x00405be8: lw        r2,28(r16)
++        394 [xor: 0xd0b46c15] {575} @ 0x00405bf0: andi      r2,r2,2
++        395 [xor: 0xd0b46bc5] {576} @ 0x00405bf8: bne       r2,r0,0x405c20
       392 @ 0x00405be0: bne       r3,r2,0x405c00
       393 @ 0x00405be8: lw        r2,28(r16)
       394 @ 0x00405bf0: andi      r2,r2,2
       395 @ 0x00405bf8: bne       r2,r0,0x405c20
++        396 [xor: 0x2e6ed2fe] {577} @ 0x00405c20: lw        r3,76(r16)
++        397 [xor: 0x2e6ed2ec] {579} @ 0x00405c28: andi      r2,r3,1024
++        398 [xor: 0x2e6ed2fc] {580} @ 0x00405c30: bne       r2,r0,0x405c10
++        399 [xor: 0x2e6ed28c] {581} @ 0x00405c38: andi      r2,r3,256
       396 @ 0x00405c20: lw        r3,76(r16)
       397 @ 0x00405c28: andi      r2,r3,1024
       398 @ 0x00405c30: bne       r2,r0,0x405c10
       399 @ 0x00405c38: andi      r2,r3,256
++        400 [xor: 0x2e6ed2cc] {582} @ 0x00405c40: beq       r2,r0,0x405c78
       400 @ 0x00405c40: beq       r2,r0,0x405c78
++        401 [xor: 0x2e6ed20c] {589} @ 0x00405c78: lw        r2,76(r16)
       401 @ 0x00405c78: lw        r2,76(r16)
++        402 [xor: 0x2e6ed2fc] {591} @ 0x00405c80: andi      r2,r2,16384
++        403 [xor: 0x2e6ed2ec] {592} @ 0x00405c88: bne       r2,r0,0x405d40
       402 @ 0x00405c80: andi      r2,r2,16384
       403 @ 0x00405c88: bne       r2,r0,0x405d40
++        404 [xor: 0x2e2e844c] {593} @ 0x00405c90: lw        r2,-32608(r28)
++        405 [xor: 0x3e2e847c] {595} @ 0x00405c98: lui       r3,0x1000
++        406 [xor: 0x2e6ecb64] {596} @ 0x00405ca0: lw        r3,5684(r3)
++        407 [xor: 0x2e6ecb74] {598} @ 0x00405ca8: sw        r2,52(r16)
++        408 [xor: 0x2e6ecb64] {600} @ 0x00405cb0: sw        r3,56(r16)
++        409 [xor: 0xc19134eb] {602} @ 0x00405cb8: lui       r5,0x1000
       404 @ 0x00405c90: lw        r2,-32608(r28)
       405 @ 0x00405c98: lui       r3,0x1000
       406 @ 0x00405ca0: lw        r3,5684(r3)
       407 @ 0x00405ca8: sw        r2,52(r16)
       408 @ 0x00405cb0: sw        r3,56(r16)
       409 @ 0x00405cb8: lui       r5,0x1000
++        410 [xor: 0xc19136bb] {603} @ 0x00405cc0: addiu     r5,r5,544
++        411 [xor: 0xc1910fcb] {604} @ 0x00405cc8: lw        r2,0(r5)
++        412 [xor: 0xc19130f3] {606} @ 0x00405cd0: lw        r3,4(r5)
++        413 [xor: 0xd1d1525b] {608} @ 0x00405cd8: lw        r4,8(r5)
       410 @ 0x00405cc0: addiu     r5,r5,544
++        414 [xor: 0xd1d1526b] {610} @ 0x00405ce0: sw        r2,32(r16)
++        415 [xor: 0xd1d1527b] {612} @ 0x00405ce8: sw        r3,36(r16)
++        416 [xor: 0xd1d1526b] {614} @ 0x00405cf0: sw        r4,40(r16)
++        417 [xor: 0xd1d14d3b] {616} @ 0x00405cf8: lw        r2,12(r5)
       411 @ 0x00405cc8: lw        r2,0(r5)
       412 @ 0x00405cd0: lw        r3,4(r5)
       413 @ 0x00405cd8: lw        r4,8(r5)
       414 @ 0x00405ce0: sw        r2,32(r16)
       415 @ 0x00405ce8: sw        r3,36(r16)
       416 @ 0x00405cf0: sw        r4,40(r16)
       417 @ 0x00405cf8: lw        r2,12(r5)
++        418 [xor: 0xd1d14d6b] {618} @ 0x00405d00: lw        r3,16(r5)
++        419 [xor: 0xd1d14d7b] {620} @ 0x00405d08: sw        r2,44(r16)
++        420 [xor: 0xd1d14d6b] {622} @ 0x00405d10: sw        r3,48(r16)
++        421 [xor: 0xc1912fc3] {624} @ 0x00405d18: addu      r4,r0,r16
       418 @ 0x00405d00: lw        r3,16(r5)
       419 @ 0x00405d08: sw        r2,44(r16)
       420 @ 0x00405d10: sw        r3,48(r16)
       421 @ 0x00405d18: addu      r4,r0,r16
++        422 [xor: 0xc191f5a3] {625} @ 0x00405d20: jal       0x40d480
       422 @ 0x00405d20: jal       0x40d480
++        423 [xor: 0xc1917cab] {626} @ 0x0040d480: addiu     r29,r29,-96
++        424 [xor: 0xc1917cbb] {627} @ 0x0040d488: sw        r16,80(r29)
++        425 [xor: 0xc1917cab] {629} @ 0x0040d490: addu      r16,r0,r4
++        426 [xor: 0xc1917c9b] {630} @ 0x0040d498: sw        r31,88(r29)
       423 @ 0x0040d480: addiu     r29,r29,-96
       424 @ 0x0040d488: sw        r16,80(r29)
       425 @ 0x0040d490: addu      r16,r0,r4
       426 @ 0x0040d498: sw        r31,88(r29)
++        427 [xor: 0xc1917cab] {632} @ 0x0040d4a0: sw        r17,84(r29)
++        428 [xor: 0xc1d10dcb] {634} @ 0x0040d4a8: lw        r2,16(r16)
++        429 [xor: 0xbe2e8dde] {636} @ 0x0040d4b0: lw        r17,24(r16)
++        430 [xor: 0xbe2e8dae] {638} @ 0x0040d4b8: bne       r2,r0,0x40d590
       427 @ 0x0040d4a0: sw        r17,84(r29)
       428 @ 0x0040d4a8: lw        r2,16(r16)
       429 @ 0x0040d4b0: lw        r17,24(r16)
       430 @ 0x0040d4b8: bne       r2,r0,0x40d590
++        431 [xor: 0xbe2e8dde] {639} @ 0x0040d4c0: lw        r2,76(r16)
++        432 [xor: 0xbe2e8dce] {641} @ 0x0040d4c8: andi      r2,r2,2048
++        433 [xor: 0xbe2e8dde] {642} @ 0x0040d4d0: bne       r2,r0,0x40d590
++        434 [xor: 0xae2e9f8f] {643} @ 0x0040d4d8: addu      r4,r0,r17
       431 @ 0x0040d4c0: lw        r2,76(r16)
       432 @ 0x0040d4c8: andi      r2,r2,2048
       433 @ 0x0040d4d0: bne       r2,r0,0x40d590
       434 @ 0x0040d4d8: addu      r4,r0,r17
++        435 [xor: 0xc1d1e817] {644} @ 0x0040d4e0: addiu     r5,r29,16
++        436 [xor: 0xc1d0b03f] {645} @ 0x0040d4e8: jal       0x410510
       435 @ 0x0040d4e0: addiu     r5,r29,16
       436 @ 0x0040d4e8: jal       0x410510
++        437 [xor: 0xc1d161f1] {646} @ 0x00410510: addiu     r2,r0,62
       437 @ 0x00410510: addiu     r2,r0,62
++        438 [xor: 0xc1d161fe] {647} @ 0x00410518: syscall   
       438 @ 0x00410518: syscall   
++        439 [xor: 0xc1d161ce] {648} @ 0x00410520: bne       r7,r0,0x410500
++        440 [xor: 0xc1d161de] {649} @ 0x00410528: nop       
++        441 [xor: 0xc1d0b006] {649} @ 0x00410530: jr        r31
++        442 [xor: 0xc1d161ce] {650} @ 0x0040d4f0: bltz      r2,0x40d590
++        443 [xor: 0xc1d141ae] {651} @ 0x0040d4f8: lhu       r2,24(r29)
       439 @ 0x00410520: bne       r7,r0,0x410500
       440 @ 0x00410530: jr        r31
       441 @ 0x0040d4f0: bltz      r2,0x40d590
++        444 [xor: 0xc19111fe] {653} @ 0x0040d500: andi      r3,r2,61440
++        445 [xor: 0xc191207e] {654} @ 0x0040d508: addiu     r2,r0,4096
++        446 [xor: 0xc191204e] {655} @ 0x0040d510: bne       r3,r2,0x40d538
       442 @ 0x0040d4f8: lhu       r2,24(r29)
       443 @ 0x0040d500: andi      r3,r2,61440
       444 @ 0x0040d508: addiu     r2,r0,4096
       445 @ 0x0040d510: bne       r3,r2,0x40d538
++        447 [xor: 0xc191101e] {658} @ 0x0040d538: addiu     r2,r0,8192
       446 @ 0x0040d538: addiu     r2,r0,8192
++        448 [xor: 0xc191106e] {659} @ 0x0040d540: bne       r3,r2,0x40d580
++        449 [xor: 0xc191107e] {660} @ 0x0040d548: addu      r4,r0,r17
++        450 [xor: 0xc190c1de] {661} @ 0x0040d550: jal       0x410540
       447 @ 0x0040d540: bne       r3,r2,0x40d580
       448 @ 0x0040d548: addu      r4,r0,r17
       449 @ 0x0040d550: jal       0x410540
++        451 [xor: 0xc19111e6] {662} @ 0x00410540: addiu     r29,r29,-32
++        452 [xor: 0xfe68647e] {663} @ 0x00410548: lui       r5,0x4006
++        453 [xor: 0xfe68646e] {664} @ 0x00410550: sw        r16,24(r29)
++        454 [xor: 0xee68763e] {666} @ 0x00410558: lw        r16,-32416(r28)
       450 @ 0x00410540: addiu     r29,r29,-32
       451 @ 0x00410548: lui       r5,0x4006
       452 @ 0x00410550: sw        r16,24(r29)
       453 @ 0x00410558: lw        r16,-32416(r28)
++        455 [xor: 0xee680206] {668} @ 0x00410560: ori       r5,r5,29704
++        456 [xor: 0xee6808a6] {669} @ 0x00410568: addiu     r6,r29,16
++        457 [xor: 0xee6808b6] {670} @ 0x00410570: sw        r31,28(r29)
++        458 [xor: 0xee69dbfe] {672} @ 0x00410578: jal       0x4106e0
       454 @ 0x00410560: ori       r5,r5,29704
       455 @ 0x00410568: addiu     r6,r29,16
       456 @ 0x00410570: sw        r31,28(r29)
       457 @ 0x00410578: jal       0x4106e0
++        459 [xor: 0xee69f858] {673} @ 0x004106e0: addiu     r2,r0,54
       458 @ 0x004106e0: addiu     r2,r0,54
++        460 [xor: 0xee69f87e] {674} @ 0x004106e8: syscall   
++        461 [xor: 0xee69f86e] {675} @ 0x004106f0: bne       r7,r0,0x4106d0
++        462 [xor: 0xee69f99e] {676} @ 0x004106f8: nop       
       459 @ 0x004106e8: syscall   
       460 @ 0x004106f0: bne       r7,r0,0x4106d0
++        463 [xor: 0xee69fae6] {676} @ 0x00410700: jr        r31
       461 @ 0x00410700: jr        r31
++        464 [xor: 0xee69f86f] {677} @ 0x00410580: sltiu     r2,r2,1
++        465 [xor: 0xee69f87f] {678} @ 0x00410588: sw        r16,-32416(r28)
++        466 [xor: 0xee6828b7] {680} @ 0x00410590: lw        r31,28(r29)
++        467 [xor: 0xfe683ae7] {682} @ 0x00410598: lw        r16,24(r29)
       462 @ 0x00410580: sltiu     r2,r2,1
       463 @ 0x00410588: sw        r16,-32416(r28)
       464 @ 0x00410590: lw        r31,28(r29)
       465 @ 0x00410598: lw        r16,24(r29)
++        468 [xor: 0xfe683af7] {684} @ 0x004105a0: addiu     r29,r29,32
[...]
sim_num_stores            5341.0000 # total number of stores committed
sim_num_branches               5870 # total number of branches committed
sim_elapsed_time                  1 # total simulation time in seconds
sim_inst_rate            29631.0000 # simulation speed (in insts/sec)
sim_total_insn                31471 # total number of instructions executed
sim_total_refs                10656 # total number of loads and stores executed
sim_total_loads                5172 # total number of loads executed
sim_total_stores          5484.0000 # total number of stores executed
sim_total_branches             6251 # total number of branches executed
sim_cycle                     31113 # total simulation time in cycles
sim_IPC                      0.9524 # instructions per cycle
sim_CPI                      1.0500 # cycles per instruction
sim_exec_BW                  1.0115 # total instructions (mis-spec + committed) per cycle
sim_IPB                      5.0479 # instruction per branch
IFQ_count                     59993 # cumulative IFQ occupancy
IFQ_fcount                    13275 # cumulative IFQ full count
ifq_occupancy                1.9282 # avg IFQ occupancy (insn's)
ifq_rate                     1.0115 # avg IFQ dispatch rate (insn/cycle)
ifq_latency                  1.9063 # avg IFQ occupant latency (cycle's)
ifq_full                     0.4267 # fraction of time (cycle's) IFQ was full
RUU_count                    237437 # cumulative RUU occupancy
RUU_fcount                     9361 # cumulative RUU full count
ruu_occupancy                7.6314 # avg RUU occupancy (insn's)
ruu_rate                     1.0115 # avg RUU dispatch rate (insn/cycle)
ruu_latency                  7.5446 # avg RUU occupant latency (cycle's)
ruu_full                     0.3009 # fraction of time (cycle's) RUU was full
LSQ_count                     52782 # cumulative LSQ occupancy
LSQ_fcount                     1887 # cumulative LSQ full count
lsq_occupancy                1.6965 # avg LSQ occupancy (insn's)
lsq_rate                     1.0115 # avg LSQ dispatch rate (insn/cycle)
lsq_latency                  1.6772 # avg LSQ occupant latency (cycle's)
lsq_full                     0.0606 # fraction of time (cycle's) LSQ was full
sim_slip                     324369 # total number of slip cycles
avg_sim_slip                10.9469 # the average slip between issue and retirement
bpred_bimod.lookups            6367 # total number of bpred lookups
bpred_bimod.updates            5870 # total number of updates
bpred_bimod.addr_hits          5362 # total number of address-predicted hits
bpred_bimod.dir_hits           5525 # total number of direction-predicted hits (includes addr-hits)
bpred_bimod.misses              345 # total number of misses
bpred_bimod.jr_hits             435 # total number of address-predicted hits for JR's
bpred_bimod.jr_seen             445 # total number of JR's seen
bpred_bimod.jr_non_ras_hits.PP           12 # total number of address-predicted hits for non-RAS JR's
bpred_bimod.jr_non_ras_seen.PP           15 # total number of non-RAS JR's seen
bpred_bimod.bpred_addr_rate    0.9135 # branch address-prediction rate (i.e., addr-hits/updates)
bpred_bimod.bpred_dir_rate    0.9412 # branch direction-prediction rate (i.e., all-hits/updates)
bpred_bimod.bpred_jr_rate    0.9775 # JR address-prediction rate (i.e., JR addr-hits/JRs seen)
bpred_bimod.bpred_jr_non_ras_rate.PP    0.8000 # non-RAS JR addr-pred rate (ie, non-RAS JR hits/JRs seen)
bpred_bimod.retstack_pushes          493 # total number of address pushed onto ret-addr stack
bpred_bimod.retstack_pops          441 # total number of address popped off of ret-addr stack
bpred_bimod.used_ras.PP          430 # total number of RAS predictions used
bpred_bimod.ras_hits.PP          423 # total number of RAS hits
bpred_bimod.ras_rate.PP    0.9837 # RAS prediction rate (i.e., RAS hits/used RAS)
il1.accesses                  32900 # total number of accesses
il1.hits                      31922 # total number of hits
il1.misses                      978 # total number of misses
il1.replacements                615 # total number of replacements
il1.writebacks                    0 # total number of writebacks
il1.invalidations                 0 # total number of invalidations
il1.miss_rate                0.0297 # miss rate (i.e., misses/ref)
il1.repl_rate                0.0187 # replacement rate (i.e., repls/ref)
il1.wb_rate                  0.0000 # writeback rate (i.e., wrbks/ref)
il1.inv_rate                 0.0000 # invalidation rate (i.e., invs/ref)
dl1.accesses                  10234 # total number of accesses
dl1.hits                       9789 # total number of hits
dl1.misses                      445 # total number of misses
dl1.replacements                 14 # total number of replacements
dl1.writebacks                    9 # total number of writebacks
dl1.invalidations                 0 # total number of invalidations
dl1.miss_rate                0.0435 # miss rate (i.e., misses/ref)
dl1.repl_rate                0.0014 # replacement rate (i.e., repls/ref)
dl1.wb_rate                  0.0009 # writeback rate (i.e., wrbks/ref)
dl1.inv_rate                 0.0000 # invalidation rate (i.e., invs/ref)
ul2.accesses                   1432 # total number of accesses
ul2.hits                        898 # total number of hits
ul2.misses                      534 # total number of misses
ul2.replacements                  0 # total number of replacements
ul2.writebacks                    0 # total number of writebacks
ul2.invalidations                 0 # total number of invalidations
ul2.miss_rate                0.3729 # miss rate (i.e., misses/ref)
ul2.repl_rate                0.0000 # replacement rate (i.e., repls/ref)
ul2.wb_rate                  0.0000 # writeback rate (i.e., wrbks/ref)
ul2.inv_rate                 0.0000 # invalidation rate (i.e., invs/ref)
itlb.accesses                 32900 # total number of accesses
itlb.hits                     32888 # total number of hits
itlb.misses                      12 # total number of misses
itlb.replacements                 0 # total number of replacements
itlb.writebacks                   0 # total number of writebacks
itlb.invalidations                0 # total number of invalidations
itlb.miss_rate               0.0004 # miss rate (i.e., misses/ref)
itlb.repl_rate               0.0000 # replacement rate (i.e., repls/ref)
itlb.wb_rate                 0.0000 # writeback rate (i.e., wrbks/ref)
itlb.inv_rate                0.0000 # invalidation rate (i.e., invs/ref)
dtlb.accesses                 10292 # total number of accesses
dtlb.hits                     10284 # total number of hits
dtlb.misses                       8 # total number of misses
dtlb.replacements                 0 # total number of replacements
dtlb.writebacks                   0 # total number of writebacks
dtlb.invalidations                0 # total number of invalidations
dtlb.miss_rate               0.0008 # miss rate (i.e., misses/ref)
dtlb.repl_rate               0.0000 # replacement rate (i.e., repls/ref)
dtlb.wb_rate                 0.0000 # writeback rate (i.e., wrbks/ref)
dtlb.inv_rate                0.0000 # invalidation rate (i.e., invs/ref)
rename_power             13004.1602 # total power usage of rename unit
bpred_power             140728.0316 # total power usage of bpred unit
window_power             68582.9901 # total power usage of instruction window
lsq_power                29967.4189 # total power usage of load/store queue
regfile_power           111150.3246 # total power usage of arch. regfile
icache_power             77065.0882 # total power usage of icache
dcache_power            189319.6888 # total power usage of dcache
dcache2_power           130957.5866 # total power usage of dcache2
alu_power               589316.7903 # total power usage of alu
falu_power              444326.1514 # total power usage of falu
resultbus_power          71483.4518 # total power usage of resultbus
clock_power             811970.6658 # total power usage of clock
avg_rename_power             0.4180 # avg power usage of rename unit
avg_bpred_power              4.5231 # avg power usage of bpred unit
avg_window_power             2.2043 # avg power usage of instruction window
avg_lsq_power                0.9632 # avg power usage of lsq
avg_regfile_power            3.5725 # avg power usage of arch. regfile
avg_icache_power             2.4769 # avg power usage of icache
avg_dcache_power             6.0849 # avg power usage of dcache
avg_dcache2_power            4.2091 # avg power usage of dcache2
avg_alu_power               18.9412 # avg power usage of alu
avg_falu_power              14.2810 # avg power usage of falu
avg_resultbus_power          2.2975 # avg power usage of resultbus
avg_clock_power             26.0975 # avg power usage of clock
fetch_stage_power       217793.1198 # total power usage of fetch stage
dispatch_stage_power     13004.1602 # total power usage of dispatch stage
issue_stage_power      1079627.9265 # total power usage of issue stage
avg_fetch_power              7.0001 # average power of fetch unit per cycle
avg_dispatch_power           0.4180 # average power of dispatch unit per cycle
avg_issue_power             34.7002 # average power of issue unit per cycle
total_power            2233546.1970 # total power per cycle
avg_total_power_cycle       71.7882 # average total power per cycle
avg_total_power_cycle_nofp_nod2      53.2981 # average total power per cycle
avg_total_power_insn        70.9716 # average total power per insn
avg_total_power_insn_nofp_nod2      52.6918 # average total power per insn
rename_power_cc1          4666.1667 # total power usage of rename unit_cc1
bpred_power_cc1          22918.6814 # total power usage of bpred unit_cc1
window_power_cc1         31417.7199 # total power usage of instruction window_cc1
lsq_power_cc1             3324.2725 # total power usage of lsq_cc1
regfile_power_cc1        37885.9635 # total power usage of arch. regfile_cc1
icache_power_cc1         30273.1819 # total power usage of icache_cc1
dcache_power_cc1         41769.8391 # total power usage of dcache_cc1
dcache2_power_cc1         5974.8110 # total power usage of dcache2_cc1
alu_power_cc1            60059.7613 # total power usage of alu_cc1
resultbus_power_cc1      19816.8279 # total power usage of resultbus_cc1
clock_power_cc1         131617.4394 # total power usage of clock_cc1
avg_rename_power_cc1         0.1500 # avg power usage of rename unit_cc1
avg_bpred_power_cc1          0.7366 # avg power usage of bpred unit_cc1
avg_window_power_cc1         1.0098 # avg power usage of instruction window_cc1
avg_lsq_power_cc1            0.1068 # avg power usage of lsq_cc1
avg_regfile_power_cc1        1.2177 # avg power usage of arch. regfile_cc1
avg_icache_power_cc1         0.9730 # avg power usage of icache_cc1
avg_dcache_power_cc1         1.3425 # avg power usage of dcache_cc1
avg_dcache2_power_cc1        0.1920 # avg power usage of dcache2_cc1
avg_alu_power_cc1            1.9304 # avg power usage of alu_cc1
avg_resultbus_power_cc1       0.6369 # avg power usage of resultbus_cc1
avg_clock_power_cc1          4.2303 # avg power usage of clock_cc1
fetch_stage_power_cc1    53191.8633 # total power usage of fetch stage_cc1
dispatch_stage_power_cc1    4666.1667 # total power usage of dispatch stage_cc1
issue_stage_power_cc1   162363.2318 # total power usage of issue stage_cc1
avg_fetch_power_cc1          1.7096 # average power of fetch unit per cycle_cc1
avg_dispatch_power_cc1       0.1500 # average power of dispatch unit per cycle_cc1
avg_issue_power_cc1          5.2185 # average power of issue unit per cycle_cc1
total_power_cycle_cc1   389724.6647 # total power per cycle_cc1
avg_total_power_cycle_cc1      12.5261 # average total power per cycle_cc1
avg_total_power_insn_cc1      12.3836 # average total power per insn_cc1
rename_power_cc2          3262.0116 # total power usage of rename unit_cc2
bpred_power_cc2          13275.3760 # total power usage of bpred unit_cc2
window_power_cc2         21664.8132 # total power usage of instruction window_cc2
lsq_power_cc2             2268.9070 # total power usage of lsq_cc2
regfile_power_cc2        10230.3455 # total power usage of arch. regfile_cc2
icache_power_cc2         30273.1819 # total power usage of icache_cc2
dcache_power_cc2         31136.4654 # total power usage of dcache_cc2
dcache2_power_cc2         3013.7123 # total power usage of dcache2_cc2
alu_power_cc2            34196.0373 # total power usage of alu_cc2
resultbus_power_cc2      11307.7881 # total power usage of resultbus_cc2
clock_power_cc2          84298.4151 # total power usage of clock_cc2
avg_rename_power_cc2         0.1048 # avg power usage of rename unit_cc2
avg_bpred_power_cc2          0.4267 # avg power usage of bpred unit_cc2
avg_window_power_cc2         0.6963 # avg power usage of instruction window_cc2
avg_lsq_power_cc2            0.0729 # avg power usage of instruction lsq_cc2
avg_regfile_power_cc2        0.3288 # avg power usage of arch. regfile_cc2
avg_icache_power_cc2         0.9730 # avg power usage of icache_cc2
avg_dcache_power_cc2         1.0008 # avg power usage of dcache_cc2
avg_dcache2_power_cc2        0.0969 # avg power usage of dcache2_cc2
avg_alu_power_cc2            1.0991 # avg power usage of alu_cc2
avg_resultbus_power_cc2       0.3634 # avg power usage of resultbus_cc2
avg_clock_power_cc2          2.7094 # avg power usage of clock_cc2
fetch_stage_power_cc2    43548.5579 # total power usage of fetch stage_cc2
dispatch_stage_power_cc2    3262.0116 # total power usage of dispatch stage_cc2
issue_stage_power_cc2   103587.7233 # total power usage of issue stage_cc2
avg_fetch_power_cc2          1.3997 # average power of fetch unit per cycle_cc2
avg_dispatch_power_cc2       0.1048 # average power of dispatch unit per cycle_cc2
avg_issue_power_cc2          3.3294 # average power of issue unit per cycle_cc2
total_power_cycle_cc2   244927.0533 # total power per cycle_cc2
avg_total_power_cycle_cc2       7.8722 # average total power per cycle_cc2
avg_total_power_insn_cc2       7.7826 # average total power per insn_cc2
rename_power_cc3          4095.8110 # total power usage of rename unit_cc3
bpred_power_cc3          25077.5697 # total power usage of bpred unit_cc3
window_power_cc3         25060.4442 # total power usage of instruction window_cc3
lsq_power_cc3             4924.6510 # total power usage of lsq_cc3
regfile_power_cc3        16617.9256 # total power usage of arch. regfile_cc3
icache_power_cc3         34952.3725 # total power usage of icache_cc3
dcache_power_cc3         46000.0659 # total power usage of dcache_cc3
dcache2_power_cc3        15512.6213 # total power usage of dcache2_cc3
alu_power_cc3            87121.7402 # total power usage of alu_cc3
resultbus_power_cc3      15459.6779 # total power usage of resultbus_cc3
clock_power_cc3         151124.6492 # total power usage of clock_cc3
avg_rename_power_cc3         0.1316 # avg power usage of rename unit_cc3
avg_bpred_power_cc3          0.8060 # avg power usage of bpred unit_cc3
avg_window_power_cc3         0.8055 # avg power usage of instruction window_cc3
avg_lsq_power_cc3            0.1583 # avg power usage of instruction lsq_cc3
avg_regfile_power_cc3        0.5341 # avg power usage of arch. regfile_cc3
avg_icache_power_cc3         1.1234 # avg power usage of icache_cc3
avg_dcache_power_cc3         1.4785 # avg power usage of dcache_cc3
avg_dcache2_power_cc3        0.4986 # avg power usage of dcache2_cc3
avg_alu_power_cc3            2.8002 # avg power usage of alu_cc3
avg_resultbus_power_cc3       0.4969 # avg power usage of resultbus_cc3
avg_clock_power_cc3          4.8573 # avg power usage of clock_cc3
fetch_stage_power_cc3    60029.9422 # total power usage of fetch stage_cc3
dispatch_stage_power_cc3    4095.8110 # total power usage of dispatch stage_cc3
issue_stage_power_cc3   194079.2004 # total power usage of issue stage_cc3
avg_fetch_power_cc3          1.9294 # average power of fetch unit per cycle_cc3
avg_dispatch_power_cc3       0.1316 # average power of dispatch unit per cycle_cc3
avg_issue_power_cc3          6.2379 # average power of issue unit per cycle_cc3
total_power_cycle_cc3   425947.5284 # total power per cycle_cc3
avg_total_power_cycle_cc3      13.6903 # average total power per cycle_cc3
avg_total_power_insn_cc3      13.5346 # average total power per insn_cc3
total_rename_access           31218 # total number accesses of rename unit
total_bpred_access             5870 # total number accesses of bpred unit
total_window_access          107592 # total number accesses of instruction window
total_lsq_access              10367 # total number accesses of load/store queue
total_regfile_access          42259 # total number accesses of arch. regfile
total_icache_access           33200 # total number accesses of icache
total_dcache_access           10234 # total number accesses of dcache
total_dcache2_access           1432 # total number accesses of dcache2
total_alu_access              29352 # total number accesses of alu
total_resultbus_access        29193 # total number accesses of resultbus
avg_rename_access            1.0034 # avg number accesses of rename unit
avg_bpred_access             0.1887 # avg number accesses of bpred unit
avg_window_access            3.4581 # avg number accesses of instruction window
avg_lsq_access               0.3332 # avg number accesses of lsq
avg_regfile_access           1.3582 # avg number accesses of arch. regfile
avg_icache_access            1.0671 # avg number accesses of icache
avg_dcache_access            0.3289 # avg number accesses of dcache
avg_dcache2_access           0.0460 # avg number accesses of dcache2
avg_alu_access               0.9434 # avg number accesses of alu
avg_resultbus_access         0.9383 # avg number accesses of resultbus
max_rename_access                 4 # max number accesses of rename unit
max_bpred_access                  4 # max number accesses of bpred unit
max_window_access                16 # max number accesses of instruction window
max_lsq_access                    4 # max number accesses of load/store queue
max_regfile_access               10 # max number accesses of arch. regfile
max_icache_access                 4 # max number accesses of icache
max_dcache_access                 4 # max number accesses of dcache
max_dcache2_access                4 # max number accesses of dcache2
max_alu_access                    4 # max number accesses of alu
max_resultbus_access              7 # max number accesses of resultbus
max_cycle_power_cc1         37.4628 # maximum cycle power usage of cc1
max_cycle_power_cc2         28.9119 # maximum cycle power usage of cc2
max_cycle_power_cc3         32.4206 # maximum cycle power usage of cc3
sim_invalid_addrs                 0 # total non-speculative bogus addresses seen (debug var)
ld_text_base             0x00400000 # program text (code) segment base
ld_text_size                  70464 # program text (code) size in bytes
ld_data_base             0x10000000 # program initialized data segment base
ld_data_size                   8192 # program init'ed `.data' and uninit'ed `.bss' size in bytes
ld_stack_base            0x7fffc000 # program stack segment base (highest address in stack)
ld_stack_size                 16384 # program initial stack size
ld_prog_entry            0x00400140 # program entry point (initial PC)
ld_environ_base          0x7fff8000 # program environment base address address
ld_target_big_endian              0 # target executable endian-ness, non-zero if big endian
mem.page_count                   26 # total number of pages allocated
mem.page_mem                   104k # total size of memory pages allocated
mem.ptab_misses                  26 # total first level page table misses
mem.ptab_accesses            648098 # total page table accesses
mem.ptab_miss_rate           0.0000 # first level page table miss rate

